old/DCOPF-main/DCOPF-main/pglib-opf-17.08 - Copy/api/pglib_opf_case13659_pegase__api.m
%%%%%%%%%%%%%%%%%%%%%%%%%%%%%%%%%%%%%%%%%%%%%%%%%%%%%%%%%%%%%%%%%%%%%%%%%%%
%%%%                                                                  %%%%%
%%%%    IEEE PES Power Grid Library - Optimal Power Flow - v17.08     %%%%%
%%%%          (https://github.com/power-grid-lib/pglib-opf)           %%%%%
%%%%             Benchmark Group - Active Power Increase              %%%%%
%%%%                        30 - August - 2017                        %%%%%
%%%%                                                                  %%%%%
%%%%%%%%%%%%%%%%%%%%%%%%%%%%%%%%%%%%%%%%%%%%%%%%%%%%%%%%%%%%%%%%%%%%%%%%%%%
function mpc = pglib_opf_case13659_pegase__api
mpc.version = '2';
mpc.baseMVA = 100.0;

%% bus data
%	bus_i	type	Pd	Qd	Gs	Bs	area	Vm	Va	baseKV	zone	Vmax	Vmin
mpc.bus = [
	1	 3	 0.00	 0.00	 0.0	 0.0	 0	    1.00000	    0.00000	 20.0	 6	    1.10000	    0.90000;
	2	 1	 79.34	 45.00	 0.0	 6.61	 0	    1.00000	    0.00000	 150.0	 9	    1.10000	    0.90000;
	3	 1	 413.07	 98.50	 0.0	 16.61	 0	    1.00000	    0.00000	 220.0	 6	    1.10000	    0.90000;
	4	 1	 146.28	 19.10	 0.0	 0.08	 0	    1.00000	    0.00000	 154.0	 1	    1.10000	    0.90000;
	5	 1	 164.83	 48.80	 0.0	 4.69	 0	    1.00000	    0.00000	 220.0	 5	    1.10000	    0.90000;
	6	 1	 187.11	 23.40	 0.0	 2.1	 0	    1.00000	    0.00000	 220.0	 5	    1.10000	    0.90000;
	7	 1	 50.16	 14.00	 0.0	 13.34	 0	    1.00000	    0.00000	 220.0	 6	    1.10000	    0.90000;
	8	 1	 374.86	 53.10	 0.70508	 36.832433	 0	    1.00000	    0.00000	 380.0	 6	    1.10000	    0.90000;
	9	 1	 -0.00	 -0.00	 0.0	 75.076713	 0	    1.00000	    0.00000	 380.0	 5	    1.10000	    0.90000;
	10	 1	 33.87	 10.30	 0.0	 0.65	 0	    1.00000	    0.00000	 110.0	 21	    1.10000	    0.90000;
	11	 1	 0.00	 -0.00	 0.0	 3.41	 0	    1.00000	    0.00000	 154.0	 1	    1.10000	    0.90000;
	12	 2	 0.00	 0.00	 0.0	 0.0	 0	    1.00000	    0.00000	 20.0	 3	    1.10000	    0.90000;
	13	 1	 15.61	 2.00	 0.0	 1.91	 0	    1.00000	    0.00000	 154.0	 1	    1.10000	    0.90000;
	14	 1	 146.28	 24.70	 0.0	 12.44	 0	    1.00000	    0.00000	 220.0	 5	    1.10000	    0.90000;
	15	 1	 0.00	 0.00	 0.0	 0.0	 0	    1.00000	    0.00000	 150.0	 9	    1.10000	    0.90000;
	16	 1	 -6.11	 2.00	 0.0	 0.47	 0	    1.00000	    0.00000	 150.0	 9	    1.10000	    0.90000;
	17	 1	 -22.74	 -8.32	 0.0	 6.5	 0	    1.00000	    0.00000	 220.0	 6	    1.10000	    0.90000;
	18	 2	 0.00	 0.00	 0.0	 0.0	 0	    1.00000	    0.00000	 20.0	 14	    1.10000	    0.90000;
	19	 1	 65.14	 26.70	 0.0	 12.84	 0	    1.00000	    0.00000	 220.0	 4	    1.10000	    0.90000;
	20	 1	 33.40	 4.30	 0.0	 5.15	 0	    1.00000	    0.00000	 154.0	 1	    1.10000	    0.90000;
	21	 1	 0.00	 -0.00	 0.234457	 -0.195381	 0	    1.00000	    0.00000	 380.0	 6	    1.10000	    0.90000;
	22	 1	 73.87	 12.10	 0.0	 2.18	 0	    1.00000	    0.00000	 220.0	 3	    1.10000	    0.90000;
	23	 1	 0.00	 0.00	 0.295874	 20.603438	 0	    1.00000	    0.00000	 380.0	 3	    1.10000	    0.90000;
	24	 1	 27.65	 7.50	 0.0	 2.39	 0	    1.00000	    0.00000	 110.0	 12	    1.10000	    0.90000;
	25	 1	 1.53	 0.20	 0.0	 4.93	 0	    1.00000	    0.00000	 154.0	 1	    1.10000	    0.90000;
	26	 1	 175.97	 39.30	 0.0	 30.71	 0	    1.00000	    0.00000	 220.0	 5	    1.10000	    0.90000;
	27	 1	 0.00	 -0.00	 0.0	 0.85	 0	    1.00000	    0.00000	 220.0	 5	    1.10000	    0.90000;
	28	 1	 21.42	 7.10	 0.0	 1.15	 0	    1.00000	    0.00000	 110.0	 19	    1.10000	    0.90000;
	29	 2	 0.00	 0.00	 0.0	 0.0	 0	    1.00000	    0.00000	 20.0	 18	    1.10000	    0.90000;
	30	 1	 34.87	 8.80	 0.0	 0.73	 0	    1.00000	    0.00000	 110.0	 22	    1.10000	    0.90000;
	31	 1	 0.00	 -0.00	 0.235277	 0.313936	 0	    1.00000	    0.00000	 220.0	 3	    1.10000	    0.90000;
	32	 1	 182.63	 54.80	 0.0	 110.54	 0	    1.00000	    0.00000	 380.0	 5	    1.10000	    0.90000;
	33	 2	 0.00	 0.00	 0.0	 0.0	 0	    1.00000	    0.00000	 20.0	 4	    1.10000	    0.90000;
	34	 1	 -0.00	 0.00	 0.0	 14.82	 0	    1.00000	    0.00000	 380.0	 13	    1.10000	    0.90000;
	35	 1	 0.00	 0.00	 0.0	 0.0	 0	    1.00000	    0.00000	 150.0	 9	    1.10000	    0.90000;
	36	 1	 166.91	 49.40	 0.0	 27.65	 0	    1.00000	    0.00000	 380.0	 5	    1.10000	    0.90000;
	37	 1	 -0.00	 0.00	 0.0	 0.56	 0	    1.00000	    0.00000	 150.0	 9	    1.10000	    0.90000;
	38	 1	 76.06	 43.20	 0.0	 6.3	 0	    1.00000	    0.00000	 150.0	 9	    1.10000	    0.90000;
	39	 2	 0.00	 0.00	 0.0	 0.0	 0	    1.00000	    0.00000	 20.0	 9	    1.10000	    0.90000;
	40	 1	 0.00	 -0.00	 0.0	 37.54	 0	    1.00000	    0.00000	 220.0	 4	    1.10000	    0.90000;
	41	 1	 0.00	 -0.00	 0.0	 0.25	 0	    1.00000	    0.00000	 220.0	 4	    1.10000	    0.90000;
	42	 2	 0.00	 0.00	 0.0	 0.0	 0	    1.00000	    0.00000	 11.0	 1	    1.10000	    0.90000;
	43	 1	 14.75	 4.90	 0.0	 1.8	 0	    1.00000	    0.00000	 110.0	 19	    1.10000	    0.90000;
	44	 1	 11.47	 3.50	 0.0	 0.31	 0	    1.00000	    0.00000	 110.0	 12	    1.10000	    0.90000;
	45	 2	 0.00	 0.00	 0.0	 0.0	 0	    1.00000	    0.00000	 20.0	 4	    1.10000	    0.90000;
	46	 1	 -0.00	 0.00	 0.12	 15.34	 0	    1.00000	    0.00000	 220.0	 19	    1.10000	    0.90000;
	47	 1	 10.05	 2.60	 0.0	 2.0	 0	    1.00000	    0.00000	 110.0	 18	    1.10000	    0.90000;
	48	 1	 46.67	 12.80	 0.0	 13.3	 0	    1.00000	    0.00000	 220.0	 8	    1.10000	    0.90000;
	49	 1	 -0.00	 0.00	 0.019959	 0.320041	 0	    1.00000	    0.00000	 150.0	 10	    1.10000	    0.90000;
	50	 1	 17.49	 4.54	 0.0	 0.1	 0	    1.00000	    0.00000	 110.0	 23	    1.10000	    0.90000;
	51	 2	 0.00	 0.00	 0.0	 0.0	 0	    1.00000	    0.00000	 14.4	 1	    1.10000	    0.90000;
	52	 1	 30.46	 4.00	 0.0	 4.23	 0	    1.00000	    0.00000	 154.0	 1	    1.10000	    0.90000;
	53	 1	 22.73	 7.90	 0.0	 26.89	 0	    1.00000	    0.00000	 380.0	 4	    1.10000	    0.90000;
	54	 2	 0.00	 0.00	 0.0	 0.0	 0	    1.00000	    0.00000	 20.0	 14	    1.10000	    0.90000;
	55	 1	 0.00	 0.00	 0.0	 7.27	 0	    1.00000	    0.00000	 220.0	 5	    1.10000	    0.90000;
	56	 1	 11.04	 3.70	 0.0	 0.81	 0	    1.00000	    0.00000	 110.0	 19	    1.10000	    0.90000;
	57	 1	 10.93	 2.70	 0.0	 1.14	 0	    1.00000	    0.00000	 110.0	 18	    1.10000	    0.90000;
	58	 1	 6.31	 -0.00	 0.0	 0.67	 0	    1.00000	    0.00000	 110.0	 18	    1.10000	    0.90000;
	59	 1	 3.17	 0.90	 0.0	 0.6	 0	    1.00000	    0.00000	 110.0	 15	    1.10000	    0.90000;
	60	 1	 -0.00	 0.00	 0.318913	 17.760815	 0	    1.00000	    0.00000	 220.0	 6	    1.10000	    0.90000;
	61	 1	 -0.00	 -0.00	 0.549745	 0.432068	 0	    1.00000	    0.00000	 380.0	 2	    1.10000	    0.90000;
	62	 2	 0.00	 0.00	 0.0	 0.0	 0	    1.00000	    0.00000	 20.0	 5	    1.10000	    0.90000;
	63	 2	 0.00	 0.00	 0.0	 0.0	 0	    1.00000	    0.00000	 20.0	 5	    1.10000	    0.90000;
	64	 1	 165.71	 48.30	 0.0	 5.53	 0	    1.00000	    0.00000	 220.0	 4	    1.10000	    0.90000;
	65	 1	 139.29	 31.80	 0.0	 20.51	 0	    1.00000	    0.00000	 150.0	 8	    1.10000	    0.90000;
	66	 2	 0.00	 0.00	 0.0	 0.0	 0	    1.00000	    0.00000	 20.0	 22	    1.10000	    0.90000;
	67	 1	 0.00	 0.00	 0.0	 0.84	 0	    1.00000	    0.00000	 110.0	 21	    1.10000	    0.90000;
	68	 2	 0.00	 0.00	 0.0	 0.0	 0	    1.00000	    0.00000	 20.0	 4	    1.10000	    0.90000;
	69	 2	 0.00	 0.00	 0.0	 0.0	 0	    1.00000	    0.00000	 20.0	 4	    1.10000	    0.90000;
	70	 1	 110.50	 -26.80	 0.0	 16.37	 0	    1.00000	    0.00000	 220.0	 6	    1.10000	    0.90000;
	71	 1	 -0.00	 -0.00	 0.0	 0.0	 0	    1.00000	    0.00000	 20.0	 5	    1.10000	    0.90000;
	72	 1	 -0.00	 -0.00	 0.0	 0.0	 0	    1.00000	    0.00000	 20.0	 5	    1.10000	    0.90000;
	73	 1	 0.00	 0.00	 0.0	 1.23	 0	    1.00000	    0.00000	 220.0	 3	    1.10000	    0.90000;
	74	 1	 0.00	 -0.00	 0.0	 0.0	 0	    1.00000	    0.00000	 20.0	 5	    1.10000	    0.90000;
	75	 1	 0.00	 -0.00	 0.0	 0.0	 0	    1.00000	    0.00000	 20.0	 5	    1.10000	    0.90000;
	76	 1	 0.00	 -0.00	 0.0	 0.0	 0	    1.00000	    0.00000	 20.0	 5	    1.10000	    0.90000;
	77	 2	 0.00	 0.00	 0.0	 0.0	 0	    1.00000	    0.00000	 20.0	 5	    1.10000	    0.90000;
	78	 2	 0.00	 0.00	 0.0	 0.0	 0	    1.00000	    0.00000	 20.0	 5	    1.10000	    0.90000;
	79	 2	 0.00	 0.00	 0.0	 0.0	 0	    1.00000	    0.00000	 20.0	 5	    1.10000	    0.90000;
	80	 1	 152.83	 79.70	 0.0	 6.5	 0	    1.00000	    0.00000	 220.0	 3	    1.10000	    0.90000;
	81	 1	 23.58	 3.00	 0.0	 3.54	 0	    1.00000	    0.00000	 154.0	 1	    1.10000	    0.90000;
	82	 1	 0.00	 -0.00	 0.0	 2.31	 0	    1.00000	    0.00000	 380.0	 5	    1.10000	    0.90000;
	83	 1	 130.12	 20.70	 0.0	 3.31	 0	    1.00000	    0.00000	 220.0	 5	    1.10000	    0.90000;
	84	 1	 28.85	 9.90	 0.0	 9.57	 0	    1.00000	    0.00000	 110.0	 22	    1.10000	    0.90000;
	85	 1	 0.24	 -1.66	 0.0	 0.65	 0	    1.00000	    0.00000	 110.0	 18	    1.10000	    0.90000;
	86	 2	 0.00	 0.00	 0.0	 0.0	 0	    1.00000	    0.00000	 20.0	 6	    1.10000	    0.90000;
	87	 1	 -0.00	 0.00	 0.0	 0.0	 0	    1.00000	    0.00000	 20.0	 6	    1.10000	    0.90000;
	88	 1	 -0.00	 0.00	 0.0	 0.0	 0	    1.00000	    0.00000	 20.0	 6	    1.10000	    0.90000;
	89	 1	 0.00	 0.00	 0.0	 58.57	 0	    1.00000	    0.00000	 380.0	 3	    1.10000	    0.90000;
	90	 1	 -0.00	 0.00	 0.0	 1.34	 0	    1.00000	    0.00000	 110.0	 18	    1.10000	    0.90000;
	91	 1	 205.11	 110.20	 0.0	 21.25	 0	    1.00000	    0.00000	 380.0	 3	    1.10000	    0.90000;
	92	 1	 16.29	 5.50	 0.0	 1.31	 0	    1.00000	    0.00000	 110.0	 15	    1.10000	    0.90000;
	93	 1	 -18.52	 6.10	 0.0	 0.79	 0	    1.00000	    0.00000	 150.0	 9	    1.10000	    0.90000;
	94	 2	 0.00	 0.00	 0.0	 0.0	 0	    1.00000	    0.00000	 11.0	 1	    1.10000	    0.90000;
	95	 1	 5.03	 1.70	 0.0	 2.32	 0	    1.00000	    0.00000	 110.0	 19	    1.10000	    0.90000;
	96	 2	 0.00	 0.00	 0.0	 0.0	 0	    1.00000	    0.00000	 20.0	 4	    1.10000	    0.90000;
	97	 2	 0.00	 0.00	 0.0	 0.0	 0	    1.00000	    0.00000	 20.0	 4	    1.10000	    0.90000;
	98	 2	 0.00	 0.00	 0.0	 0.0	 0	    1.00000	    0.00000	 20.0	 4	    1.10000	    0.90000;
	99	 2	 0.00	 0.00	 0.0	 0.0	 0	    1.00000	    0.00000	 20.0	 4	    1.10000	    0.90000;
	100	 2	 0.00	 0.00	 0.0	 0.0	 0	    1.00000	    0.00000	 20.0	 4	    1.10000	    0.90000;
	101	 2	 0.00	 0.00	 0.0	 0.0	 0	    1.00000	    0.00000	 20.0	 4	    1.10000	    0.90000;
	102	 2	 0.00	 0.00	 0.0	 0.0	 0	    1.00000	    0.00000	 20.0	 4	    1.10000	    0.90000;
	103	 1	 68.63	 20.50	 0.0	 1.15	 0	    1.00000	    0.00000	 150.0	 8	    1.10000	    0.90000;
	104	 2	 0.00	 0.00	 0.0	 0.0	 0	    1.00000	    0.00000	 20.0	 3	    1.10000	    0.90000;
	105	 1	 14.74	 14.80	 0.0	 132.435168	 0	    1.00000	    0.00000	 380.0	 9	    1.20000	    0.80000;
	106	 1	 137.87	 42.40	 0.0	 55.24	 0	    1.00000	    0.00000	 150.0	 8	    1.10000	    0.90000;
	107	 2	 0.00	 0.00	 0.0	 0.0	 0	    1.00000	    0.00000	 20.0	 3	    1.10000	    0.90000;
	108	 1	 6.91	 -4.60	 0.0	 5.75	 0	    1.00000	    0.00000	 220.0	 4	    1.10000	    0.90000;
	109	 1	 17.16	 5.20	 0.0	 0.11	 0	    1.00000	    0.00000	 110.0	 12	    1.10000	    0.90000;
	110	 2	 0.00	 0.00	 0.0	 0.0	 0	    1.00000	    0.00000	 20.0	 3	    1.10000	    0.90000;
	111	 1	 17.60	 4.30	 0.0	 0.49	 0	    1.00000	    0.00000	 110.0	 23	    1.10000	    0.90000;
	112	 1	 42.29	 6.10	 0.0	 1.17	 0	    1.00000	    0.00000	 220.0	 4	    1.10000	    0.90000;
	113	 1	 24.16	 10.70	 0.0	 14.21	 0	    1.00000	    0.00000	 220.0	 8	    1.10000	    0.90000;
	114	 2	 0.00	 0.00	 0.0	 0.0	 0	    1.00000	    0.00000	 20.0	 4	    1.10000	    0.90000;
	115	 2	 0.00	 0.00	 0.0	 0.0	 0	    1.00000	    0.00000	 20.0	 10	    1.10000	    0.90000;
	116	 1	 0.00	 -0.00	 0.0	 0.73	 0	    1.00000	    0.00000	 220.0	 4	    1.10000	    0.90000;
	117	 1	 0.00	 0.00	 0.0	 0.83	 0	    1.00000	    0.00000	 110.0	 18	    1.10000	    0.90000;
	118	 1	 151.52	 136.70	 0.0	 8.76	 0	    1.00000	    0.00000	 380.0	 3	    1.10000	    0.90000;
	119	 1	 149.88	 66.40	 0.174767	 14.17407	 0	    1.00000	    0.00000	 220.0	 23	    1.10000	    0.90000;
	120	 1	 73.97	 19.18	 0.0	 1.47	 0	    1.00000	    0.00000	 150.0	 1	    1.10000	    0.90000;
	121	 2	 0.00	 0.00	 0.0	 0.0	 0	    1.00000	    0.00000	 20.0	 14	    1.10000	    0.90000;
	122	 1	 0.00	 -0.00	 0.0	 6.62	 0	    1.00000	    0.00000	 220.0	 3	    1.10000	    0.90000;
	123	 1	 -0.00	 -0.00	 0.0	 7.22	 0	    1.00000	    0.00000	 380.0	 1	    1.10000	    0.90000;
	124	 1	 1.09	 0.30	 0.0	 0.19	 0	    1.00000	    0.00000	 110.0	 19	    1.10000	    0.90000;
	125	 1	 22.81	 3.00	 0.0	 5.74	 0	    1.00000	    0.00000	 154.0	 1	    1.10000	    0.90000;
	126	 1	 0.00	 0.00	 0.0	 0.12	 0	    1.00000	    0.00000	 150.0	 9	    1.10000	    0.90000;
	127	 1	 23.49	 5.10	 0.0	 0.5	 0	    1.00000	    0.00000	 110.0	 18	    1.10000	    0.90000;
	128	 1	 78.57	 28.80	 0.0	 11.0	 0	    1.00000	    0.00000	 220.0	 6	    1.10000	    0.90000;
	129	 1	 0.00	 0.00	 0.205132	 4.470744	 0	    1.00000	    0.00000	 380.0	 2	    1.10000	    0.90000;
	130	 1	 396.53	 115.39	 0.0	 3.95	 0	    1.00000	    0.00000	 220.0	 5	    1.10000	    0.90000;
	131	 1	 210.57	 73.30	 0.0	 20.75	 0	    1.00000	    0.00000	 380.0	 3	    1.10000	    0.90000;
	132	 2	 0.00	 0.00	 0.0	 0.0	 0	    1.00000	    0.00000	 11.0	 1	    1.10000	    0.90000;
	133	 2	 0.00	 0.00	 0.0	 0.0	 0	    1.00000	    0.00000	 20.0	 14	    1.10000	    0.90000;
	134	 2	 0.00	 0.00	 0.0	 0.0	 0	    1.00000	    0.00000	 20.0	 4	    1.10000	    0.90000;
	135	 2	 0.00	 0.00	 0.0	 0.0	 0	    1.00000	    0.00000	 20.0	 4	    1.10000	    0.90000;
	136	 2	 0.00	 0.00	 0.0	 0.0	 0	    1.00000	    0.00000	 20.0	 3	    1.10000	    0.90000;
	137	 1	 19.13	 6.30	 0.0	 0.26	 0	    1.00000	    0.00000	 110.0	 19	    1.10000	    0.90000;
	138	 1	 36.18	 12.00	 0.0	 0.65	 0	    1.00000	    0.00000	 110.0	 19	    1.10000	    0.90000;
	139	 1	 44.14	 25.00	 0.0	 9.82	 0	    1.00000	    0.00000	 150.0	 9	    1.10000	    0.90000;
	140	 1	 210.87	 53.37	 0.0	 4.58	 0	    1.00000	    0.00000	 220.0	 5	    1.10000	    0.90000;
	141	 1	 99.01	 25.50	 0.0	 3.11	 0	    1.00000	    0.00000	 220.0	 3	    1.20000	    0.80000;
	142	 1	 176.30	 -58.90	 0.0	 24.77	 0	    1.00000	    0.00000	 380.0	 6	    1.10000	    0.90000;
	143	 1	 39.23	 22.30	 0.0	 0.0	 0	    1.00000	    0.00000	 150.0	 9	    1.10000	    0.90000;
	144	 2	 0.00	 0.00	 0.0	 0.0	 0	    1.00000	    0.00000	 20.0	 14	    1.10000	    0.90000;
	145	 2	 0.00	 0.00	 0.0	 0.0	 0	    1.00000	    0.00000	 20.0	 5	    1.10000	    0.90000;
	146	 2	 0.00	 0.00	 0.0	 0.0	 0	    1.00000	    0.00000	 20.0	 5	    1.10000	    0.90000;
	147	 2	 0.00	 0.00	 0.0	 0.0	 0	    1.00000	    0.00000	 20.0	 5	    1.10000	    0.90000;
	148	 1	 157.08	 123.20	 0.0	 72.64	 0	    1.00000	    0.00000	 380.0	 3	    1.10000	    0.90000;
	149	 1	 -0.00	 -0.00	 0.0	 3.77	 0	    1.00000	    0.00000	 220.0	 6	    1.10000	    0.90000;
	150	 1	 -0.00	 8.40	 0.0	 15.72	 0	    1.00000	    0.00000	 150.0	 9	    1.10000	    0.90000;
	151	 2	 0.00	 0.00	 0.0	 0.0	 0	    1.00000	    0.00000	 13.8	 1	    1.10000	    0.90000;
	152	 1	 51.36	 -8.80	 0.0	 2.15	 0	    1.00000	    0.00000	 220.0	 6	    1.10000	    0.90000;
	153	 2	 0.00	 0.00	 0.0	 0.0	 0	    1.00000	    0.00000	 20.0	 14	    1.10000	    0.90000;
	154	 2	 0.00	 0.00	 0.0	 0.0	 0	    1.00000	    0.00000	 20.0	 3	    1.10000	    0.90000;
	155	 1	 -0.00	 -0.00	 0.0	 82.55	 0	    1.00000	    0.00000	 380.0	 6	    1.10000	    0.90000;
	156	 2	 0.00	 0.00	 0.0	 0.0	 0	    1.00000	    0.00000	 20.0	 6	    1.10000	    0.90000;
	157	 1	 352.26	 11.90	 0.0	 10.28	 0	    1.00000	    0.00000	 380.0	 6	    1.10000	    0.90000;
	158	 1	 331.41	 79.80	 0.019533	 1.690467	 0	    1.00000	    0.00000	 220.0	 5	    1.10000	    0.90000;
	159	 1	 4.15	 1.30	 0.0	 0.4	 0	    1.00000	    0.00000	 110.0	 18	    1.10000	    0.90000;
	160	 1	 149.55	 19.50	 0.0	 4.9	 0	    1.00000	    0.00000	 154.0	 1	    1.10000	    0.90000;
	161	 2	 0.00	 0.00	 0.0	 0.0	 0	    1.00000	    0.00000	 20.0	 6	    1.10000	    0.90000;
	162	 2	 0.00	 0.00	 0.0	 0.0	 0	    1.00000	    0.00000	 20.0	 6	    1.10000	    0.90000;
	163	 1	 0.00	 0.00	 0.0	 0.0	 0	    1.00000	    0.00000	 150.0	 9	    1.10000	    0.90000;
	164	 1	 66.67	 36.00	 0.0	 3.09	 0	    1.00000	    0.00000	 220.0	 11	    1.10000	    0.90000;
	165	 2	 0.00	 0.00	 0.0	 0.0	 0	    1.00000	    0.00000	 20.0	 4	    1.10000	    0.90000;
	166	 1	 -0.00	 0.00	 0.0	 3.24	 0	    1.00000	    0.00000	 220.0	 3	    1.10000	    0.90000;
	167	 1	 0.00	 0.00	 0.0	 6.520303	 0	    1.00000	    0.00000	 380.0	 5	    1.10000	    0.90000;
	168	 1	 60.80	 7.90	 0.0	 4.21	 0	    1.00000	    0.00000	 154.0	 1	    1.10000	    0.90000;
	169	 1	 0.00	 0.00	 0.0	 4.21	 0	    1.00000	    0.00000	 220.0	 5	    1.10000	    0.90000;
	170	 1	 1.96	 0.70	 0.0	 0.3	 0	    1.00000	    0.00000	 110.0	 19	    1.10000	    0.90000;
	171	 1	 0.00	 -0.00	 0.0	 0.71	 0	    1.00000	    0.00000	 150.0	 9	    1.10000	    0.90000;
	172	 1	 2.50	 0.00	 0.0	 0.96	 0	    1.00000	    0.00000	 110.0	 18	    1.10000	    0.90000;
	173	 1	 0.00	 0.00	 0.0	 0.09	 0	    1.00000	    0.00000	 150.0	 9	    1.10000	    0.90000;
	174	 1	 42.51	 11.00	 0.0	 0.64	 0	    1.00000	    0.00000	 110.0	 1	    1.10000	    0.90000;
	175	 1	 49.29	 14.10	 0.0	 0.19	 0	    1.00000	    0.00000	 110.0	 15	    1.10000	    0.90000;
	176	 1	 0.00	 -0.00	 0.0	 5.75	 0	    1.00000	    0.00000	 220.0	 3	    1.10000	    0.90000;
	177	 1	 0.00	 0.00	 0.019004	 4.360996	 0	    1.00000	    0.00000	 220.0	 11	    1.10000	    0.90000;
	178	 1	 0.00	 -0.00	 0.566322	 -0.241138	 0	    1.00000	    0.00000	 220.0	 5	    1.10000	    0.90000;
	179	 2	 0.00	 0.00	 0.0	 0.0	 0	    1.00000	    0.00000	 20.0	 4	    1.10000	    0.90000;
	180	 1	 18.80	 5.70	 0.0	 1.22	 0	    1.00000	    0.00000	 110.0	 21	    1.10000	    0.90000;
	181	 1	 -0.00	 -0.00	 0.0	 0.0	 0	    1.00000	    0.00000	 20.0	 14	    1.10000	    0.90000;
	182	 2	 0.00	 0.00	 0.0	 0.0	 0	    1.00000	    0.00000	 20.0	 20	    1.10000	    0.90000;
	183	 1	 0.00	 0.00	 0.0	 4.3	 0	    1.00000	    0.00000	 220.0	 6	    1.10000	    0.90000;
	184	 1	 25.90	 12.70	 0.0	 0.52	 0	    1.00000	    0.00000	 220.0	 5	    1.10000	    0.90000;
	185	 1	 133.07	 7.40	 0.0	 1.34	 0	    1.00000	    0.00000	 220.0	 3	    1.10000	    0.90000;
	186	 1	 0.00	 -0.00	 0.135375	 47.750675	 0	    1.00000	    0.00000	 380.0	 10	    1.10000	    0.90000;
	187	 1	 51.69	 16.40	 0.0	 4.08	 0	    1.00000	    0.00000	 110.0	 22	    1.10000	    0.90000;
	188	 1	 -0.00	 0.00	 0.0	 0.0	 0	    1.00000	    0.00000	 20.0	 4	    1.10000	    0.90000;
	189	 1	 -0.00	 -0.00	 0.0	 21.39	 0	    1.00000	    0.00000	 380.0	 1	    1.10000	    0.90000;
	190	 1	 41.63	 12.50	 0.0	 6.28	 0	    1.00000	    0.00000	 150.0	 8	    1.10000	    0.90000;
	191	 1	 59.17	 7.80	 0.0	 94.9	 0	    1.00000	    0.00000	 400.0	 1	    1.10000	    0.90000;
	192	 1	 142.57	 84.90	 0.0	 4.22	 0	    1.00000	    0.00000	 220.0	 7	    1.10000	    0.90000;
	193	 1	 8.63	 2.60	 0.0	 0.74	 0	    1.00000	    0.00000	 110.0	 12	    1.10000	    0.90000;
	194	 1	 45.96	 74.61	 0.0	 37.58	 0	    1.00000	    0.00000	 150.0	 1	    1.10000	    0.90000;
	195	 1	 -75.38	 7.80	 0.0	 29.9	 0	    1.00000	    0.00000	 380.0	 10	    1.10000	    0.90000;
	196	 2	 0.00	 0.00	 0.0	 0.0	 0	    1.00000	    0.00000	 20.0	 6	    1.10000	    0.90000;
	197	 2	 0.00	 0.00	 0.0	 0.0	 0	    1.00000	    0.00000	 20.0	 4	    1.10000	    0.90000;
	198	 1	 44.81	 14.30	 0.0	 11.53	 0	    1.00000	    0.00000	 220.0	 6	    1.10000	    0.90000;
	199	 1	 -0.00	 -0.00	 0.0	 4.14	 0	    1.00000	    0.00000	 220.0	 8	    1.10000	    0.90000;
	200	 1	 110.14	 49.30	 0.020067	 4.329933	 0	    1.00000	    0.00000	 220.0	 13	    1.10000	    0.90000;
...
];

%% generator data
%	bus	Pg	Qg	Qmax	Qmin	Vg	mBase	status	Pmax	Pmin	Pc1	Pc2	Qc1min	Qc1max	Qc2min	Qc2max	ramp_agc	ramp_10	ramp_30	ramp_q	apf
mpc.gen = [
	1	 81.555	 0.0	 75.0	 -75.0	 1.031695	 100.0	 1	 149	 14.11	 0.0	 0.0	 0.0	 0.0	 0.0	 0.0	 0.0	 0.0	 0.0	 0.0	 0.0; % NG
	12	 187.5	 23.5	 210.0	 -163.0	 1.004054	 100.0	 1	 325	 50.0	 0.0	 0.0	 0.0	 0.0	 0.0	 0.0	 0.0	 0.0	 0.0	 0.0	 0.0; % NG
	18	 87.3375	 0.0	 81.0	 -81.0	 1.043087	 100.0	 1	 162	 12.675	 0.0	 0.0	 0.0	 0.0	 0.0	 0.0	 0.0	 0.0	 0.0	 0.0	 0.0; % NG
	29	 50.7975	 0.0	 45.0	 -45.0	 1.033319	 100.0	 1	 90	 11.595	 0.0	 0.0	 0.0	 0.0	 0.0	 0.0	 0.0	 0.0	 0.0	 0.0	 0.0; % NG
	33	 36.225	 4.0	 40.0	 -32.0	 1.018631	 100.0	 1	 64	 8.45	 0.0	 0.0	 0.0	 0.0	 0.0	 0.0	 0.0	 0.0	 0.0	 0.0	 0.0; % NG
	39	 168.0	 33.5	 210.0	 -143.0	 1.073284	 100.0	 1	 286	 50.0	 0.0	 0.0	 0.0	 0.0	 0.0	 0.0	 0.0	 0.0	 0.0	 0.0	 0.0; % COW
	42	 36.1825	 0.0	 34.0	 -34.0	 0.985213	 100.0	 1	 67	 5.365	 0.0	 0.0	 0.0	 0.0	 0.0	 0.0	 0.0	 0.0	 0.0	 0.0	 0.0; % COW
	45	 263.5	 0.0	 239.0	 -239.0	 1.012099	 100.0	 1	 477	 50.0	 0.0	 0.0	 0.0	 0.0	 0.0	 0.0	 0.0	 0.0	 0.0	 0.0	 0.0; % COW
	51	 227.0	 0.0	 202.0	 -202.0	 1.011416	 100.0	 1	 404	 50.0	 0.0	 0.0	 0.0	 0.0	 0.0	 0.0	 0.0	 0.0	 0.0	 0.0	 0.0; % NG
	54	 81.18	 0.0	 75.0	 -75.0	 1.021005	 100.0	 1	 150	 12.36	 0.0	 0.0	 0.0	 0.0	 0.0	 0.0	 0.0	 0.0	 0.0	 0.0	 0.0; % NG
	62	 433.5	 93.0	 520.0	 -334.0	 1.058268	 100.0	 1	 667	 200.0	 0.0	 0.0	 0.0	 0.0	 0.0	 0.0	 0.0	 0.0	 0.0	 0.0	 0.0; % COW
	63	 979.0	 0.0	 879.0	 -879.0	 1.058268	 100.0	 1	 1758	 200.0	 0.0	 0.0	 0.0	 0.0	 0.0	 0.0	 0.0	 0.0	 0.0	 0.0	 0.0; % COW
	66	 201.0	 0.0	 176.0	 -176.0	 1.034768	 100.0	 1	 352	 50.0	 0.0	 0.0	 0.0	 0.0	 0.0	 0.0	 0.0	 0.0	 0.0	 0.0	 0.0; % NG
	68	 130.4525	 0.0	 122.0	 -122.0	 1.035023	 100.0	 1	 243	 17.905	 0.0	 0.0	 0.0	 0.0	 0.0	 0.0	 0.0	 0.0	 0.0	 0.0	 0.0; % NG
	69	 89.9525	 0.0	 81.0	 -81.0	 1.035023	 100.0	 1	 162	 17.905	 0.0	 0.0	 0.0	 0.0	 0.0	 0.0	 0.0	 0.0	 0.0	 0.0	 0.0; % NG
	77	 58.1075	 0.0	 54.0	 -54.0	 1.038344	 100.0	 1	 108	 8.215	 0.0	 0.0	 0.0	 0.0	 0.0	 0.0	 0.0	 0.0	 0.0	 0.0	 0.0; % NG
	78	 153.08	 0.0	 144.0	 -144.0	 1.027383	 100.0	 1	 288	 18.16	 0.0	 0.0	 0.0	 0.0	 0.0	 0.0	 0.0	 0.0	 0.0	 0.0	 0.0; % NG
	79	 68.5225	 0.0	 66.0	 -66.0	 1.016716	 100.0	 1	 131	 6.045	 0.0	 0.0	 0.0	 0.0	 0.0	 0.0	 0.0	 0.0	 0.0	 0.0	 0.0; % NG
	86	 120.5	 0.0	 96.0	 -96.0	 1.023881	 100.0	 1	 191	 50.0	 0.0	 0.0	 0.0	 0.0	 0.0	 0.0	 0.0	 0.0	 0.0	 0.0	 0.0; % NG
	94	 38.94	 0.0	 36.0	 -36.0	 1.022611	 100.0	 1	 72	 5.88	 0.0	 0.0	 0.0	 0.0	 0.0	 0.0	 0.0	 0.0	 0.0	 0.0	 0.0; % COW
	96	 62.7375	 0.0	 55.0	 -55.0	 1.043225	 100.0	 1	 109	 16.475	 0.0	 0.0	 0.0	 0.0	 0.0	 0.0	 0.0	 0.0	 0.0	 0.0	 0.0; % NG
	97	 131.7375	 0.0	 124.0	 -124.0	 1.043225	 100.0	 1	 247	 16.475	 0.0	 0.0	 0.0	 0.0	 0.0	 0.0	 0.0	 0.0	 0.0	 0.0	 0.0; % NG
	98	 139.7375	 0.0	 132.0	 -132.0	 1.043225	 100.0	 1	 263	 16.475	 0.0	 0.0	 0.0	 0.0	 0.0	 0.0	 0.0	 0.0	 0.0	 0.0	 0.0; % COW
	99	 43.975	 0.0	 40.0	 -40.0	 1.031885	 100.0	 1	 80	 7.95	 0.0	 0.0	 0.0	 0.0	 0.0	 0.0	 0.0	 0.0	 0.0	 0.0	 0.0; % NG
	100	 72.475	 0.0	 69.0	 -69.0	 1.031885	 100.0	 1	 137	 7.95	 0.0	 0.0	 0.0	 0.0	 0.0	 0.0	 0.0	 0.0	 0.0	 0.0	 0.0; % NG
	101	 113.7375	 0.0	 106.0	 -106.0	 1.043225	 100.0	 1	 211	 16.475	 0.0	 0.0	 0.0	 0.0	 0.0	 0.0	 0.0	 0.0	 0.0	 0.0	 0.0; % COW
	102	 95.2375	 0.0	 87.0	 -87.0	 1.043225	 100.0	 1	 174	 16.475	 0.0	 0.0	 0.0	 0.0	 0.0	 0.0	 0.0	 0.0	 0.0	 0.0	 0.0; % NG
	104	 222.6575	 0.0	 208.0	 -208.0	 1.052257	 100.0	 1	 416	 29.315	 0.0	 0.0	 0.0	 0.0	 0.0	 0.0	 0.0	 0.0	 0.0	 0.0	 0.0; % NG
	107	 113.3775	 0.0	 102.0	 -102.0	 1.028153	 100.0	 1	 204	 22.755	 0.0	 0.0	 0.0	 0.0	 0.0	 0.0	 0.0	 0.0	 0.0	 0.0	 0.0; % COW
	110	 146.245	 0.0	 131.0	 -131.0	 1.051233	 100.0	 1	 262	 30.49	 0.0	 0.0	 0.0	 0.0	 0.0	 0.0	 0.0	 0.0	 0.0	 0.0	 0.0; % NG
	114	 71.5575	 0.0	 65.0	 -65.0	 1.030832	 100.0	 1	 129	 14.115	 0.0	 0.0	 0.0	 0.0	 0.0	 0.0	 0.0	 0.0	 0.0	 0.0	 0.0; % NG
	115	 109.725	 0.0	 106.0	 -106.0	 1.019	 100.0	 1	 212	 7.45	 0.0	 0.0	 0.0	 0.0	 0.0	 0.0	 0.0	 0.0	 0.0	 0.0	 0.0; % NG
	121	 49.505	 0.0	 44.0	 -44.0	 1.045359	 100.0	 1	 87	 12.01	 0.0	 0.0	 0.0	 0.0	 0.0	 0.0	 0.0	 0.0	 0.0	 0.0	 0.0; % NG
	132	 20.5875	 0.0	 20.0	 -20.0	 0.996117	 100.0	 1	 39	 2.175	 0.0	 0.0	 0.0	 0.0	 0.0	 0.0	 0.0	 0.0	 0.0	 0.0	 0.0; % COW
	133	 66.1275	 0.0	 60.0	 -60.0	 1.042317	 100.0	 1	 120	 12.255	 0.0	 0.0	 0.0	 0.0	 0.0	 0.0	 0.0	 0.0	 0.0	 0.0	 0.0; % NG
	134	 56.59	 0.0	 49.0	 -49.0	 1.044129	 100.0	 1	 98	 15.18	 0.0	 0.0	 0.0	 0.0	 0.0	 0.0	 0.0	 0.0	 0.0	 0.0	 0.0; % NG
	135	 45.5575	 0.5	 40.0	 -39.0	 1.030832	 100.0	 1	 77	 14.115	 0.0	 0.0	 0.0	 0.0	 0.0	 0.0	 0.0	 0.0	 0.0	 0.0	 0.0; % PEL
	136	 41.4725	 13.5	 60.0	 -33.0	 1.049674	 100.0	 1	 66	 16.945	 0.0	 0.0	 0.0	 0.0	 0.0	 0.0	 0.0	 0.0	 0.0	 0.0	 0.0; % NG
	144	 47.9675	 0.0	 45.0	 -45.0	 1.034631	 100.0	 1	 90	 5.935	 0.0	 0.0	 0.0	 0.0	 0.0	 0.0	 0.0	 0.0	 0.0	 0.0	 0.0; % NG
	145	 589.5	 15.0	 520.0	 -490.0	 1.040587	 100.0	 1	 979	 200.0	 0.0	 0.0	 0.0	 0.0	 0.0	 0.0	 0.0	 0.0	 0.0	 0.0	 0.0; % COW
	146	 382.0	 119.0	 520.0	 -282.0	 1.044313	 100.0	 1	 564	 200.0	 0.0	 0.0	 0.0	 0.0	 0.0	 0.0	 0.0	 0.0	 0.0	 0.0	 0.0; % PEL
	147	 372.0	 124.0	 520.0	 -272.0	 1.044313	 100.0	 1	 544	 200.0	 0.0	 0.0	 0.0	 0.0	 0.0	 0.0	 0.0	 0.0	 0.0	 0.0	 0.0; % NUC
	151	 172.0	 1.5	 150.0	 -147.0	 1.023215	 100.0	 1	 294	 50.0	 0.0	 0.0	 0.0	 0.0	 0.0	 0.0	 0.0	 0.0	 0.0	 0.0	 0.0; % NG
	153	 47.5225	 0.0	 42.0	 -42.0	 1.027348	 100.0	 1	 83	 12.045	 0.0	 0.0	 0.0	 0.0	 0.0	 0.0	 0.0	 0.0	 0.0	 0.0	 0.0; % COW
	154	 699.5	 0.0	 575.0	 -575.0	 1.05252	 100.0	 1	 1149	 250.0	 0.0	 0.0	 0.0	 0.0	 0.0	 0.0	 0.0	 0.0	 0.0	 0.0	 0.0; % NUC
	156	 96.2225	 0.0	 88.0	 -88.0	 1.034597	 100.0	 1	 176	 16.445	 0.0	 0.0	 0.0	 0.0	 0.0	 0.0	 0.0	 0.0	 0.0	 0.0	 0.0; % NG
	161	 102.2225	 0.0	 94.0	 -94.0	 1.034597	 100.0	 1	 188	 16.445	 0.0	 0.0	 0.0	 0.0	 0.0	 0.0	 0.0	 0.0	 0.0	 0.0	 0.0; % COW
	162	 105.2225	 0.0	 97.0	 -97.0	 1.034597	 100.0	 1	 194	 16.445	 0.0	 0.0	 0.0	 0.0	 0.0	 0.0	 0.0	 0.0	 0.0	 0.0	 0.0; % COW
	165	 81.0575	 0.0	 74.0	 -74.0	 1.030832	 100.0	 1	 148	 14.115	 0.0	 0.0	 0.0	 0.0	 0.0	 0.0	 0.0	 0.0	 0.0	 0.0	 0.0; % NG
	179	 132.3375	 0.0	 117.0	 -117.0	 1.023144	 100.0	 1	 233	 31.675	 0.0	 0.0	 0.0	 0.0	 0.0	 0.0	 0.0	 0.0	 0.0	 0.0	 0.0; % NG
	182	 58.3275	 0.0	 53.0	 -53.0	 1.054937	 100.0	 1	 105	 11.655	 0.0	 0.0	 0.0	 0.0	 0.0	 0.0	 0.0	 0.0	 0.0	 0.0	 0.0; % COW
	196	 177.0125	 0.0	 164.0	 -164.0	 1.021915	 100.0	 1	 327	 27.025	 0.0	 0.0	 0.0	 0.0	 0.0	 0.0	 0.0	 0.0	 0.0	 0.0	 0.0; % NG
	197	 128.5	 28.0	 160.0	 -104.0	 1.005341	 100.0	 1	 207	 50.0	 0.0	 0.0	 0.0	 0.0	 0.0	 0.0	 0.0	 0.0	 0.0	 0.0	 0.0; % NG
	207	 52.6575	 0.0	 48.0	 -48.0	 1.016461	 100.0	 1	 96	 9.315	 0.0	 0.0	 0.0	 0.0	 0.0	 0.0	 0.0	 0.0	 0.0	 0.0	 0.0; % NG
	220	 114.2875	 0.0	 98.0	 -98.0	 1.055654	 100.0	 1	 196	 32.575	 0.0	 0.0	 0.0	 0.0	 0.0	 0.0	 0.0	 0.0	 0.0	 0.0	 0.0; % COW
	221	 141.7875	 0.0	 126.0	 -126.0	 1.055654	 100.0	 1	 251	 32.575	 0.0	 0.0	 0.0	 0.0	 0.0	 0.0	 0.0	 0.0	 0.0	 0.0	 0.0; % NG
	222	 113.2775	 0.0	 97.0	 -97.0	 1.051105	 100.0	 1	 194	 32.555	 0.0	 0.0	 0.0	 0.0	 0.0	 0.0	 0.0	 0.0	 0.0	 0.0	 0.0; % NG
	223	 154.2875	 0.0	 138.0	 -138.0	 1.055654	 100.0	 1	 276	 32.575	 0.0	 0.0	 0.0	 0.0	 0.0	 0.0	 0.0	 0.0	 0.0	 0.0	 0.0; % NG
	224	 81.7775	 0.0	 66.0	 -66.0	 1.051105	 100.0	 1	 131	 32.555	 0.0	 0.0	 0.0	 0.0	 0.0	 0.0	 0.0	 0.0	 0.0	 0.0	 0.0; % NG
	225	 190.2775	 0.0	 174.0	 -174.0	 1.051105	 100.0	 1	 348	 32.555	 0.0	 0.0	 0.0	 0.0	 0.0	 0.0	 0.0	 0.0	 0.0	 0.0	 0.0; % NG
	229	 65.505	 0.0	 62.0	 -62.0	 1.034441	 100.0	 1	 124	 7.01	 0.0	 0.0	 0.0	 0.0	 0.0	 0.0	 0.0	 0.0	 0.0	 0.0	 0.0; % NG
	241	 453.5	 83.0	 520.0	 -354.0	 1.037622	 100.0	 1	 707	 200.0	 0.0	 0.0	 0.0	 0.0	 0.0	 0.0	 0.0	 0.0	 0.0	 0.0	 0.0; % NG
	243	 29.405	 3.0	 30.0	 -24.0	 1.053647	 100.0	 1	 48	 10.81	 0.0	 0.0	 0.0	 0.0	 0.0	 0.0	 0.0	 0.0	 0.0	 0.0	 0.0; % NG
	248	 39.8975	 0.0	 36.0	 -36.0	 1.026279	 100.0	 1	 71	 8.795	 0.0	 0.0	 0.0	 0.0	 0.0	 0.0	 0.0	 0.0	 0.0	 0.0	 0.0; % NG
	250	 186.5	 0.0	 162.0	 -162.0	 1.012099	 100.0	 1	 323	 50.0	 0.0	 0.0	 0.0	 0.0	 0.0	 0.0	 0.0	 0.0	 0.0	 0.0	 0.0; % COW
	258	 20.3675	 0.0	 19.0	 -19.0	 0.955439	 100.0	 1	 38	 2.735	 0.0	 0.0	 0.0	 0.0	 0.0	 0.0	 0.0	 0.0	 0.0	 0.0	 0.0; % NG
	259	 35.9175	 0.0	 30.0	 -30.0	 1.03425	 100.0	 1	 59	 12.835	 0.0	 0.0	 0.0	 0.0	 0.0	 0.0	 0.0	 0.0	 0.0	 0.0	 0.0; % NG
	266	 92.7475	 0.0	 88.0	 -88.0	 1.005915	 100.0	 1	 176	 9.495	 0.0	 0.0	 0.0	 0.0	 0.0	 0.0	 0.0	 0.0	 0.0	 0.0	 0.0; % NG
	270	 34.5675	 0.0	 32.0	 -32.0	 1.003342	 100.0	 1	 63	 6.135	 0.0	 0.0	 0.0	 0.0	 0.0	 0.0	 0.0	 0.0	 0.0	 0.0	 0.0; % NG
	271	 465.0	 77.5	 520.0	 -365.0	 1.053159	 100.0	 1	 730	 200.0	 0.0	 0.0	 0.0	 0.0	 0.0	 0.0	 0.0	 0.0	 0.0	 0.0	 0.0; % COW
	273	 898.5	 0.0	 799.0	 -799.0	 1.051456	 100.0	 1	 1597	 200.0	 0.0	 0.0	 0.0	 0.0	 0.0	 0.0	 0.0	 0.0	 0.0	 0.0	 0.0; % COW
	274	 491.5	 64.0	 520.0	 -392.0	 1.051088	 100.0	 1	 783	 200.0	 0.0	 0.0	 0.0	 0.0	 0.0	 0.0	 0.0	 0.0	 0.0	 0.0	 0.0; % COW
	275	 506.0	 57.0	 520.0	 -406.0	 1.051088	 100.0	 1	 812	 200.0	 0.0	 0.0	 0.0	 0.0	 0.0	 0.0	 0.0	 0.0	 0.0	 0.0	 0.0; % COW
	276	 762.5	 0.0	 663.0	 -663.0	 1.050379	 100.0	 1	 1325	 200.0	 0.0	 0.0	 0.0	 0.0	 0.0	 0.0	 0.0	 0.0	 0.0	 0.0	 0.0; % NUC
	278	 398.0	 11.0	 320.0	 -298.0	 0.960771	 100.0	 1	 596	 200.0	 0.0	 0.0	 0.0	 0.0	 0.0	 0.0	 0.0	 0.0	 0.0	 0.0	 0.0; % COW
	283	 10.3325	 0.0	 10.0	 -10.0	 1.000621	 100.0	 1	 18	 2.665	 0.0	 0.0	 0.0	 0.0	 0.0	 0.0	 0.0	 0.0	 0.0	 0.0	 0.0; % COW
	289	 38.65	 0.0	 33.0	 -33.0	 1.040289	 100.0	 1	 65	 12.3	 0.0	 0.0	 0.0	 0.0	 0.0	 0.0	 0.0	 0.0	 0.0	 0.0	 0.0; % NG
	294	 74.4675	 0.0	 59.0	 -59.0	 0.999187	 100.0	 1	 118	 30.935	 0.0	 0.0	 0.0	 0.0	 0.0	 0.0	 0.0	 0.0	 0.0	 0.0	 0.0; % COW
	296	 51.5	 0.0	 48.0	 -48.0	 0.989117	 100.0	 1	 96	 7.0	 0.0	 0.0	 0.0	 0.0	 0.0	 0.0	 0.0	 0.0	 0.0	 0.0	 0.0; % NG
	299	 176.0	 0.0	 151.0	 -151.0	 0.993468	 100.0	 1	 302	 50.0	 0.0	 0.0	 0.0	 0.0	 0.0	 0.0	 0.0	 0.0	 0.0	 0.0	 0.0; % COW
	304	 68.1625	 0.0	 62.0	 -62.0	 1.037997	 100.0	 1	 123	 13.325	 0.0	 0.0	 0.0	 0.0	 0.0	 0.0	 0.0	 0.0	 0.0	 0.0	 0.0; % NG
	305	 71.1225	 0.0	 67.0	 -67.0	 1.030407	 100.0	 1	 133	 9.245	 0.0	 0.0	 0.0	 0.0	 0.0	 0.0	 0.0	 0.0	 0.0	 0.0	 0.0; % NG
	306	 85.1225	 0.0	 81.0	 -81.0	 1.030407	 100.0	 1	 161	 9.245	 0.0	 0.0	 0.0	 0.0	 0.0	 0.0	 0.0	 0.0	 0.0	 0.0	 0.0; % NG
	307	 47.9425	 0.0	 45.0	 -45.0	 1.049321	 100.0	 1	 90	 5.885	 0.0	 0.0	 0.0	 0.0	 0.0	 0.0	 0.0	 0.0	 0.0	 0.0	 0.0; % NG
	308	 82.9425	 0.0	 80.0	 -80.0	 1.049321	 100.0	 1	 160	 5.885	 0.0	 0.0	 0.0	 0.0	 0.0	 0.0	 0.0	 0.0	 0.0	 0.0	 0.0; % NG
	309	 34.3475	 0.5	 30.0	 -29.0	 1.05655	 100.0	 1	 58	 10.695	 0.0	 0.0	 0.0	 0.0	 0.0	 0.0	 0.0	 0.0	 0.0	 0.0	 0.0; % NG
	310	 44.3475	 0.0	 39.0	 -39.0	 1.05655	 100.0	 1	 78	 10.695	 0.0	 0.0	 0.0	 0.0	 0.0	 0.0	 0.0	 0.0	 0.0	 0.0	 0.0; % NG
	311	 65.3475	 0.0	 60.0	 -60.0	 1.05655	 100.0	 1	 120	 10.695	 0.0	 0.0	 0.0	 0.0	 0.0	 0.0	 0.0	 0.0	 0.0	 0.0	 0.0; % NG
	312	 92.8475	 0.0	 88.0	 -88.0	 1.05655	 100.0	 1	 175	 10.695	 0.0	 0.0	 0.0	 0.0	 0.0	 0.0	 0.0	 0.0	 0.0	 0.0	 0.0; % COW
	315	 4.3425	 0.0	 10.0	 -10.0	 1.021202	 100.0	 1	 8	 0.685	 0.0	 0.0	 0.0	 0.0	 0.0	 0.0	 0.0	 0.0	 0.0	 0.0	 0.0; % NG
	323	 224.5	 172.5	 520.0	 -175.0	 1.016993	 100.0	 1	 349	 100.0	 0.0	 0.0	 0.0	 0.0	 0.0	 0.0	 0.0	 0.0	 0.0	 0.0	 0.0; % COW
	324	 12.3325	 0.0	 12.0	 -12.0	 1.024179	 100.0	 1	 23	 1.665	 0.0	 0.0	 0.0	 0.0	 0.0	 0.0	 0.0	 0.0	 0.0	 0.0	 0.0; % NG
	325	 19.3	 0.0	 19.0	 -19.0	 0.996355	 100.0	 1	 37	 1.6	 0.0	 0.0	 0.0	 0.0	 0.0	 0.0	 0.0	 0.0	 0.0	 0.0	 0.0; % NG
	328	 96.09	 0.0	 87.0	 -87.0	 1.023168	 100.0	 1	 174	 18.18	 0.0	 0.0	 0.0	 0.0	 0.0	 0.0	 0.0	 0.0	 0.0	 0.0	 0.0; % NG
	331	 67.1025	 0.0	 63.0	 -63.0	 1.006233	 100.0	 1	 125	 9.205	 0.0	 0.0	 0.0	 0.0	 0.0	 0.0	 0.0	 0.0	 0.0	 0.0	 0.0; % NG
	332	 5.8325	 0.0	 10.0	 -10.0	 0.996766	 100.0	 1	 11	 0.665	 0.0	 0.0	 0.0	 0.0	 0.0	 0.0	 0.0	 0.0	 0.0	 0.0	 0.0; % NG
	336	 38.68	 0.0	 36.0	 -36.0	 1.010862	 100.0	 1	 72	 5.36	 0.0	 0.0	 0.0	 0.0	 0.0	 0.0	 0.0	 0.0	 0.0	 0.0	 0.0; % NG
	338	 39.68	 0.0	 37.0	 -37.0	 1.00038	 100.0	 1	 74	 5.36	 0.0	 0.0	 0.0	 0.0	 0.0	 0.0	 0.0	 0.0	 0.0	 0.0	 0.0; % NG
	345	 344.0	 0.0	 294.0	 -294.0	 1.030395	 100.0	 1	 588	 100.0	 0.0	 0.0	 0.0	 0.0	 0.0	 0.0	 0.0	 0.0	 0.0	 0.0	 0.0; % COW
	346	 293.5	 0.0	 244.0	 -244.0	 1.030395	 100.0	 1	 487	 100.0	 0.0	 0.0	 0.0	 0.0	 0.0	 0.0	 0.0	 0.0	 0.0	 0.0	 0.0; % COW
	351	 182.5	 26.0	 210.0	 -158.0	 1.024484	 100.0	 1	 315	 50.0	 0.0	 0.0	 0.0	 0.0	 0.0	 0.0	 0.0	 0.0	 0.0	 0.0	 0.0; % NG
	354	 36.57	 0.0	 31.0	 -31.0	 1.029166	 100.0	 1	 61	 12.14	 0.0	 0.0	 0.0	 0.0	 0.0	 0.0	 0.0	 0.0	 0.0	 0.0	 0.0; % NG
	358	 286.5	 0.0	 262.0	 -262.0	 1.050725	 100.0	 1	 523	 50.0	 0.0	 0.0	 0.0	 0.0	 0.0	 0.0	 0.0	 0.0	 0.0	 0.0	 0.0; % NG
	360	 156.02	 0.0	 142.0	 -142.0	 1.028641	 100.0	 1	 284	 28.04	 0.0	 0.0	 0.0	 0.0	 0.0	 0.0	 0.0	 0.0	 0.0	 0.0	 0.0; % COW
	361	 96.52	 0.0	 83.0	 -83.0	 1.028641	 100.0	 1	 165	 28.04	 0.0	 0.0	 0.0	 0.0	 0.0	 0.0	 0.0	 0.0	 0.0	 0.0	 0.0; % NG
	362	 83.52	 0.0	 70.0	 -70.0	 1.028641	 100.0	 1	 139	 28.04	 0.0	 0.0	 0.0	 0.0	 0.0	 0.0	 0.0	 0.0	 0.0	 0.0	 0.0; % NG
	363	 92.02	 0.0	 78.0	 -78.0	 1.028641	 100.0	 1	 156	 28.04	 0.0	 0.0	 0.0	 0.0	 0.0	 0.0	 0.0	 0.0	 0.0	 0.0	 0.0; % NG
	364	 7.875	 0.0	 10.0	 -10.0	 1.00564	 100.0	 1	 14	 1.75	 0.0	 0.0	 0.0	 0.0	 0.0	 0.0	 0.0	 0.0	 0.0	 0.0	 0.0; % NG
	365	 97.8675	 14.0	 110.0	 -82.0	 0.997585	 100.0	 1	 164	 31.735	 0.0	 0.0	 0.0	 0.0	 0.0	 0.0	 0.0	 0.0	 0.0	 0.0	 0.0; % NG
	368	 160.02	 0.0	 146.0	 -146.0	 1.028641	 100.0	 1	 292	 28.04	 0.0	 0.0	 0.0	 0.0	 0.0	 0.0	 0.0	 0.0	 0.0	 0.0	 0.0; % NG
	369	 103.52	 0.0	 90.0	 -90.0	 1.028641	 100.0	 1	 179	 28.04	 0.0	 0.0	 0.0	 0.0	 0.0	 0.0	 0.0	 0.0	 0.0	 0.0	 0.0; % NG
	382	 171.505	 0.0	 155.0	 -155.0	 0.990596	 100.0	 1	 309	 34.01	 0.0	 0.0	 0.0	 0.0	 0.0	 0.0	 0.0	 0.0	 0.0	 0.0	 0.0; % NG
	383	 94.04	 0.0	 77.0	 -77.0	 1.012482	 100.0	 1	 154	 34.08	 0.0	 0.0	 0.0	 0.0	 0.0	 0.0	 0.0	 0.0	 0.0	 0.0	 0.0; % NG
	392	 11.1725	 0.0	 11.0	 -11.0	 1.030636	 100.0	 1	 22	 0.345	 0.0	 0.0	 0.0	 0.0	 0.0	 0.0	 0.0	 0.0	 0.0	 0.0	 0.0; % NG
	394	 74.3175	 0.0	 68.0	 -68.0	 1.0326	 100.0	 1	 136	 12.635	 0.0	 0.0	 0.0	 0.0	 0.0	 0.0	 0.0	 0.0	 0.0	 0.0	 0.0; % NG
	395	 77.205	 0.0	 71.0	 -71.0	 1.028283	 100.0	 1	 142	 12.41	 0.0	 0.0	 0.0	 0.0	 0.0	 0.0	 0.0	 0.0	 0.0	 0.0	 0.0; % NG
	396	 127.7125	 0.0	 114.0	 -114.0	 1.029542	 100.0	 1	 227	 28.425	 0.0	 0.0	 0.0	 0.0	 0.0	 0.0	 0.0	 0.0	 0.0	 0.0	 0.0; % NG
	400	 80.25	 0.0	 65.0	 -65.0	 0.979015	 100.0	 1	 129	 31.5	 0.0	 0.0	 0.0	 0.0	 0.0	 0.0	 0.0	 0.0	 0.0	 0.0	 0.0; % NG
	405	 59.1075	 0.0	 54.0	 -54.0	 1.00773	 100.0	 1	 107	 11.215	 0.0	 0.0	 0.0	 0.0	 0.0	 0.0	 0.0	 0.0	 0.0	 0.0	 0.0; % COW
	406	 63.6075	 0.0	 58.0	 -58.0	 1.00773	 100.0	 1	 116	 11.215	 0.0	 0.0	 0.0	 0.0	 0.0	 0.0	 0.0	 0.0	 0.0	 0.0	 0.0; % NG
	408	 71.32	 0.0	 66.0	 -66.0	 1.043492	 100.0	 1	 131	 11.64	 0.0	 0.0	 0.0	 0.0	 0.0	 0.0	 0.0	 0.0	 0.0	 0.0	 0.0; % NG
	423	 3.165	 0.0	 10.0	 -10.0	 1.015919	 100.0	 1	 6	 0.33	 0.0	 0.0	 0.0	 0.0	 0.0	 0.0	 0.0	 0.0	 0.0	 0.0	 0.0; % NG
	432	 12.25	 0.0	 12.0	 -12.0	 1.016602	 100.0	 1	 23	 1.5	 0.0	 0.0	 0.0	 0.0	 0.0	 0.0	 0.0	 0.0	 0.0	 0.0	 0.0; % NG
	433	 98.0075	 0.0	 93.0	 -93.0	 1.011489	 100.0	 1	 186	 10.015	 0.0	 0.0	 0.0	 0.0	 0.0	 0.0	 0.0	 0.0	 0.0	 0.0	 0.0; % COW
	438	 67.5225	 0.0	 65.0	 -65.0	 1.016716	 100.0	 1	 129	 6.045	 0.0	 0.0	 0.0	 0.0	 0.0	 0.0	 0.0	 0.0	 0.0	 0.0	 0.0; % NG
	442	 109.225	 0.0	 104.0	 -104.0	 1.043357	 100.0	 1	 208	 10.45	 0.0	 0.0	 0.0	 0.0	 0.0	 0.0	 0.0	 0.0	 0.0	 0.0	 0.0; % NG
	448	 55.2025	 0.0	 51.0	 -51.0	 1.038795	 100.0	 1	 102	 8.405	 0.0	 0.0	 0.0	 0.0	 0.0	 0.0	 0.0	 0.0	 0.0	 0.0	 0.0; % COW
	454	 9.8925	 0.0	 10.0	 -10.0	 0.973833	 100.0	 1	 17	 2.785	 0.0	 0.0	 0.0	 0.0	 0.0	 0.0	 0.0	 0.0	 0.0	 0.0	 0.0; % NG
	458	 56.2125	 0.0	 51.0	 -51.0	 1.009892	 100.0	 1	 102	 10.425	 0.0	 0.0	 0.0	 0.0	 0.0	 0.0	 0.0	 0.0	 0.0	 0.0	 0.0; % NG
	463	 257.18	 0.0	 100000.0	 -100000.0	 1.126642	 100.0	 1	 541	 -26.64	 0.0	 0.0	 0.0	 0.0	 0.0	 0.0	 0.0	 0.0	 0.0	 0.0	 0.0; % COW
	470	 148.9675	 0.0	 137.0	 -137.0	 1.046905	 100.0	 1	 273	 24.935	 0.0	 0.0	 0.0	 0.0	 0.0	 0.0	 0.0	 0.0	 0.0	 0.0	 0.0; % NG
	476	 110.5	 57.0	 210.0	 -96.0	 1.029484	 100.0	 1	 171	 50.0	 0.0	 0.0	 0.0	 0.0	 0.0	 0.0	 0.0	 0.0	 0.0	 0.0	 0.0; % NG
	477	 103.8375	 0.0	 98.0	 -98.0	 1.043087	 100.0	 1	 195	 12.675	 0.0	 0.0	 0.0	 0.0	 0.0	 0.0	 0.0	 0.0	 0.0	 0.0	 0.0; % NG
	480	 89.3675	 0.0	 75.0	 -75.0	 1.033425	 100.0	 1	 149	 29.735	 0.0	 0.0	 0.0	 0.0	 0.0	 0.0	 0.0	 0.0	 0.0	 0.0	 0.0; % NG
	481	 75.3675	 0.0	 61.0	 -61.0	 1.033425	 100.0	 1	 121	 29.735	 0.0	 0.0	 0.0	 0.0	 0.0	 0.0	 0.0	 0.0	 0.0	 0.0	 0.0; % NG
	482	 141.3675	 0.0	 127.0	 -127.0	 1.033425	 100.0	 1	 253	 29.735	 0.0	 0.0	 0.0	 0.0	 0.0	 0.0	 0.0	 0.0	 0.0	 0.0	 0.0; % NG
	483	 173.8675	 0.0	 159.0	 -159.0	 1.033425	 100.0	 1	 318	 29.735	 0.0	 0.0	 0.0	 0.0	 0.0	 0.0	 0.0	 0.0	 0.0	 0.0	 0.0; % COW
	485	 254.5	 2.5	 210.0	 -205.0	 1.059619	 100.0	 1	 409	 100.0	 0.0	 0.0	 0.0	 0.0	 0.0	 0.0	 0.0	 0.0	 0.0	 0.0	 0.0; % COW
	492	 157.5	 33.0	 210.0	 -144.0	 1.041985	 100.0	 1	 265	 50.0	 0.0	 0.0	 0.0	 0.0	 0.0	 0.0	 0.0	 0.0	 0.0	 0.0	 0.0; % COW
	496	 167.7125	 0.0	 157.0	 -157.0	 1.00876	 100.0	 1	 314	 21.425	 0.0	 0.0	 0.0	 0.0	 0.0	 0.0	 0.0	 0.0	 0.0	 0.0	 0.0; % COW
	508	 506.0	 69.5	 520.0	 -381.0	 1.044776	 100.0	 1	 762	 250.0	 0.0	 0.0	 0.0	 0.0	 0.0	 0.0	 0.0	 0.0	 0.0	 0.0	 0.0; % COW
	509	 449.0	 70.4	 520.0	 -379.2	 1.044388	 100.0	 1	 648	 250.0	 0.0	 0.0	 0.0	 0.0	 0.0	 0.0	 0.0	 0.0	 0.0	 0.0	 0.0; % COW
	510	 613.0	 16.0	 520.0	 -488.0	 1.044096	 100.0	 1	 976	 250.0	 0.0	 0.0	 0.0	 0.0	 0.0	 0.0	 0.0	 0.0	 0.0	 0.0	 0.0; % COW
	514	 754.0	 0.0	 629.0	 -629.0	 1.044511	 100.0	 1	 1258	 250.0	 0.0	 0.0	 0.0	 0.0	 0.0	 0.0	 0.0	 0.0	 0.0	 0.0	 0.0; % COW
	516	 46.9275	 0.0	 42.0	 -42.0	 1.041748	 100.0	 1	 83	 10.855	 0.0	 0.0	 0.0	 0.0	 0.0	 0.0	 0.0	 0.0	 0.0	 0.0	 0.0; % NG
	528	 84.4425	 0.0	 81.0	 -81.0	 1.020703	 100.0	 1	 161	 7.885	 0.0	 0.0	 0.0	 0.0	 0.0	 0.0	 0.0	 0.0	 0.0	 0.0	 0.0; % COW
	531	 45.965	 0.0	 40.0	 -40.0	 1.035838	 100.0	 1	 79	 12.93	 0.0	 0.0	 0.0	 0.0	 0.0	 0.0	 0.0	 0.0	 0.0	 0.0	 0.0; % COW
	532	 131.0	 52.0	 210.0	 -106.0	 1.036699	 100.0	 1	 212	 50.0	 0.0	 0.0	 0.0	 0.0	 0.0	 0.0	 0.0	 0.0	 0.0	 0.0	 0.0; % NG
	533	 233.0	 0.0	 208.0	 -208.0	 1.016377	 100.0	 1	 416	 50.0	 0.0	 0.0	 0.0	 0.0	 0.0	 0.0	 0.0	 0.0	 0.0	 0.0	 0.0; % NG
	539	 172.0	 0.0	 147.0	 -147.0	 0.993492	 100.0	 1	 294	 50.0	 0.0	 0.0	 0.0	 0.0	 0.0	 0.0	 0.0	 0.0	 0.0	 0.0	 0.0; % NG
	552	 80.1	 0.0	 75.0	 -75.0	 0.99834	 100.0	 1	 150	 10.2	 0.0	 0.0	 0.0	 0.0	 0.0	 0.0	 0.0	 0.0	 0.0	 0.0	 0.0; % NG
	559	 86.5825	 0.0	 78.0	 -78.0	 0.954584	 100.0	 1	 156	 17.165	 0.0	 0.0	 0.0	 0.0	 0.0	 0.0	 0.0	 0.0	 0.0	 0.0	 0.0; % NG
	564	 32.1275	 0.5	 30.0	 -29.0	 1.024499	 100.0	 1	 57	 7.255	 0.0	 0.0	 0.0	 0.0	 0.0	 0.0	 0.0	 0.0	 0.0	 0.0	 0.0; % NG
	572	 30.6675	 0.0	 30.0	 -30.0	 1.004314	 100.0	 1	 59	 2.335	 0.0	 0.0	 0.0	 0.0	 0.0	 0.0	 0.0	 0.0	 0.0	 0.0	 0.0; % NG
	575	 99.015	 0.0	 96.0	 -96.0	 1.016739	 100.0	 1	 192	 6.03	 0.0	 0.0	 0.0	 0.0	 0.0	 0.0	 0.0	 0.0	 0.0	 0.0	 0.0; % NG
	576	 28.015	 2.5	 30.0	 -25.0	 1.016739	 100.0	 1	 50	 6.03	 0.0	 0.0	 0.0	 0.0	 0.0	 0.0	 0.0	 0.0	 0.0	 0.0	 0.0; % NG
	577	 50.515	 0.0	 48.0	 -48.0	 1.016739	 100.0	 1	 95	 6.03	 0.0	 0.0	 0.0	 0.0	 0.0	 0.0	 0.0	 0.0	 0.0	 0.0	 0.0; % COW
	581	 26.015	 3.5	 30.0	 -23.0	 1.016739	 100.0	 1	 46	 6.03	 0.0	 0.0	 0.0	 0.0	 0.0	 0.0	 0.0	 0.0	 0.0	 0.0	 0.0; % NG
	585	 113.1025	 0.0	 101.0	 -101.0	 1.041629	 100.0	 1	 202	 24.205	 0.0	 0.0	 0.0	 0.0	 0.0	 0.0	 0.0	 0.0	 0.0	 0.0	 0.0; % NG
	589	 20.73	 0.0	 19.0	 -19.0	 1.00755	 100.0	 1	 37	 4.46	 0.0	 0.0	 0.0	 0.0	 0.0	 0.0	 0.0	 0.0	 0.0	 0.0	 0.0; % NG
	610	 36.325	 0.0	 31.0	 -31.0	 1.019723	 100.0	 1	 62	 10.65	 0.0	 0.0	 0.0	 0.0	 0.0	 0.0	 0.0	 0.0	 0.0	 0.0	 0.0; % NG
	614	 65.8025	 0.0	 60.0	 -60.0	 1.031902	 100.0	 1	 120	 11.605	 0.0	 0.0	 0.0	 0.0	 0.0	 0.0	 0.0	 0.0	 0.0	 0.0	 0.0; % NG
	615	 40.3025	 2.5	 40.0	 -35.0	 1.031902	 100.0	 1	 69	 11.605	 0.0	 0.0	 0.0	 0.0	 0.0	 0.0	 0.0	 0.0	 0.0	 0.0	 0.0; % NG
	619	 54.0825	 0.0	 47.0	 -47.0	 1.031502	 100.0	 1	 94	 14.165	 0.0	 0.0	 0.0	 0.0	 0.0	 0.0	 0.0	 0.0	 0.0	 0.0	 0.0; % NG
	621	 24.4675	 0.0	 24.0	 -24.0	 1.003942	 100.0	 1	 47	 1.935	 0.0	 0.0	 0.0	 0.0	 0.0	 0.0	 0.0	 0.0	 0.0	 0.0	 0.0; % NG
	623	 57.505	 0.0	 52.0	 -52.0	 1.045359	 100.0	 1	 103	 12.01	 0.0	 0.0	 0.0	 0.0	 0.0	 0.0	 0.0	 0.0	 0.0	 0.0	 0.0; % NG
	626	 96.715	 0.0	 90.0	 -90.0	 1.035771	 100.0	 1	 179	 14.43	 0.0	 0.0	 0.0	 0.0	 0.0	 0.0	 0.0	 0.0	 0.0	 0.0	 0.0; % NG
	635	 1.5225	 0.0	 10.0	 -10.0	 1.023511	 100.0	 1	 3	 0.045	 0.0	 0.0	 0.0	 0.0	 0.0	 0.0	 0.0	 0.0	 0.0	 0.0	 0.0; % NG
	637	 125.2025	 0.0	 121.0	 -121.0	 1.04616	 100.0	 1	 242	 8.405	 0.0	 0.0	 0.0	 0.0	 0.0	 0.0	 0.0	 0.0	 0.0	 0.0	 0.0; % COW
	646	 427.0	 0.0	 377.0	 -377.0	 1.030395	 100.0	 1	 754	 100.0	 0.0	 0.0	 0.0	 0.0	 0.0	 0.0	 0.0	 0.0	 0.0	 0.0	 0.0; % COW
	648	 171.5	 44.0	 210.0	 -122.0	 1.007781	 100.0	 1	 243	 100.0	 0.0	 0.0	 0.0	 0.0	 0.0	 0.0	 0.0	 0.0	 0.0	 0.0	 0.0; % COW
	649	 213.0	 23.5	 210.0	 -163.0	 1.030395	 100.0	 1	 326	 100.0	 0.0	 0.0	 0.0	 0.0	 0.0	 0.0	 0.0	 0.0	 0.0	 0.0	 0.0; % NG
	651	 320.5	 0.0	 296.0	 -296.0	 1.028351	 100.0	 1	 591	 50.0	 0.0	 0.0	 0.0	 0.0	 0.0	 0.0	 0.0	 0.0	 0.0	 0.0	 0.0; % NG
	652	 250.0	 0.0	 225.0	 -225.0	 1.028351	 100.0	 1	 450	 50.0	 0.0	 0.0	 0.0	 0.0	 0.0	 0.0	 0.0	 0.0	 0.0	 0.0	 0.0; % NG
	654	 195.9	 0.0	 181.0	 -181.0	 1.014507	 100.0	 1	 361	 30.8	 0.0	 0.0	 0.0	 0.0	 0.0	 0.0	 0.0	 0.0	 0.0	 0.0	 0.0; % NG
	660	 70.035	 0.0	 65.0	 -65.0	 1.022689	 100.0	 1	 129	 11.07	 0.0	 0.0	 0.0	 0.0	 0.0	 0.0	 0.0	 0.0	 0.0	 0.0	 0.0; % NG
	666	 72.7175	 0.0	 68.0	 -68.0	 1.018739	 100.0	 1	 135	 10.435	 0.0	 0.0	 0.0	 0.0	 0.0	 0.0	 0.0	 0.0	 0.0	 0.0	 0.0; % NG
	671	 28.2	 0.0	 24.0	 -24.0	 0.999061	 100.0	 1	 48	 8.4	 0.0	 0.0	 0.0	 0.0	 0.0	 0.0	 0.0	 0.0	 0.0	 0.0	 0.0; % NG
	676	 345.0	 0.0	 320.0	 -320.0	 1.018066	 100.0	 1	 640	 50.0	 0.0	 0.0	 0.0	 0.0	 0.0	 0.0	 0.0	 0.0	 0.0	 0.0	 0.0; % COW
	681	 92.1125	 0.0	 78.0	 -78.0	 1.00657	 100.0	 1	 156	 28.225	 0.0	 0.0	 0.0	 0.0	 0.0	 0.0	 0.0	 0.0	 0.0	 0.0	 0.0; % NG
	684	 119.9825	 0.0	 109.0	 -109.0	 1.035618	 100.0	 1	 217	 22.965	 0.0	 0.0	 0.0	 0.0	 0.0	 0.0	 0.0	 0.0	 0.0	 0.0	 0.0; % NG
	693	 147.5	 18.5	 160.0	 -123.0	 1.038999	 100.0	 1	 245	 50.0	 0.0	 0.0	 0.0	 0.0	 0.0	 0.0	 0.0	 0.0	 0.0	 0.0	 0.0; % NG
	695	 26.4	 0.0	 25.0	 -25.0	 1.010516	 100.0	 1	 50	 2.8	 0.0	 0.0	 0.0	 0.0	 0.0	 0.0	 0.0	 0.0	 0.0	 0.0	 0.0; % NG
	698	 31.9525	 0.0	 28.0	 -28.0	 1.018527	 100.0	 1	 55	 8.905	 0.0	 0.0	 0.0	 0.0	 0.0	 0.0	 0.0	 0.0	 0.0	 0.0	 0.0; % NG
	709	 774.0	 0.0	 674.0	 -674.0	 1.051727	 100.0	 1	 1348	 200.0	 0.0	 0.0	 0.0	 0.0	 0.0	 0.0	 0.0	 0.0	 0.0	 0.0	 0.0; % COW
	715	 120.9825	 0.0	 117.0	 -117.0	 1.007844	 100.0	 1	 234	 7.965	 0.0	 0.0	 0.0	 0.0	 0.0	 0.0	 0.0	 0.0	 0.0	 0.0	 0.0; % NG
	717	 22.8525	 0.0	 19.0	 -19.0	 1.027572	 100.0	 1	 38	 7.705	 0.0	 0.0	 0.0	 0.0	 0.0	 0.0	 0.0	 0.0	 0.0	 0.0	 0.0; % COW
	721	 164.8925	 0.0	 153.0	 -153.0	 0.992442	 100.0	 1	 305	 24.785	 0.0	 0.0	 0.0	 0.0	 0.0	 0.0	 0.0	 0.0	 0.0	 0.0	 0.0; % NG
	724	 48.4175	 0.0	 43.0	 -43.0	 1.045213	 100.0	 1	 85	 11.835	 0.0	 0.0	 0.0	 0.0	 0.0	 0.0	 0.0	 0.0	 0.0	 0.0	 0.0; % COW
	730	 119.91	 0.0	 104.0	 -104.0	 1.01458	 100.0	 1	 207	 32.82	 0.0	 0.0	 0.0	 0.0	 0.0	 0.0	 0.0	 0.0	 0.0	 0.0	 0.0; % NG
	731	 82.91	 0.0	 67.0	 -67.0	 1.01458	 100.0	 1	 133	 32.82	 0.0	 0.0	 0.0	 0.0	 0.0	 0.0	 0.0	 0.0	 0.0	 0.0	 0.0; % NG
	732	 80.41	 0.0	 64.0	 -64.0	 1.01458	 100.0	 1	 128	 32.82	 0.0	 0.0	 0.0	 0.0	 0.0	 0.0	 0.0	 0.0	 0.0	 0.0	 0.0; % NG
	734	 99.41	 0.0	 83.0	 -83.0	 1.01458	 100.0	 1	 166	 32.82	 0.0	 0.0	 0.0	 0.0	 0.0	 0.0	 0.0	 0.0	 0.0	 0.0	 0.0; % NG
	746	 54.6675	 0.0	 52.0	 -52.0	 0.994194	 100.0	 1	 104	 5.335	 0.0	 0.0	 0.0	 0.0	 0.0	 0.0	 0.0	 0.0	 0.0	 0.0	 0.0; % NG
	749	 29.2625	 2.0	 30.0	 -26.0	 1.009791	 100.0	 1	 51	 7.525	 0.0	 0.0	 0.0	 0.0	 0.0	 0.0	 0.0	 0.0	 0.0	 0.0	 0.0; % NG
	750	 104.2625	 0.0	 101.0	 -101.0	 1.009791	 100.0	 1	 201	 7.525	 0.0	 0.0	 0.0	 0.0	 0.0	 0.0	 0.0	 0.0	 0.0	 0.0	 0.0; % NG
	751	 112.2625	 0.0	 109.0	 -109.0	 1.009791	 100.0	 1	 217	 7.525	 0.0	 0.0	 0.0	 0.0	 0.0	 0.0	 0.0	 0.0	 0.0	 0.0	 0.0; % COW
	753	 86.44	 0.0	 83.0	 -83.0	 1.018866	 100.0	 1	 166	 6.88	 0.0	 0.0	 0.0	 0.0	 0.0	 0.0	 0.0	 0.0	 0.0	 0.0	 0.0; % COW
	754	 116.775	 0.0	 106.0	 -106.0	 1.009683	 100.0	 1	 212	 21.55	 0.0	 0.0	 0.0	 0.0	 0.0	 0.0	 0.0	 0.0	 0.0	 0.0	 0.0; % NG
	765	 74.0625	 0.0	 61.0	 -61.0	 1.032985	 100.0	 1	 122	 26.125	 0.0	 0.0	 0.0	 0.0	 0.0	 0.0	 0.0	 0.0	 0.0	 0.0	 0.0; % NG
...
];

%% generator cost data
%	2	startup	shutdown	n	c(n-1)	...	c0
mpc.gencost = [
	2	 0.0	 0.0	 3	   0.000000	  40.494755	   0.000000; % NG
	2	 0.0	 0.0	 3	   0.000000	  42.419990	   0.000000; % NG
	2	 0.0	 0.0	 3	   0.000000	  49.348588	   0.000000; % NG
	2	 0.0	 0.0	 3	   0.000000	  61.166477	   0.000000; % NG
	2	 0.0	 0.0	 3	   0.000000	  40.981959	   0.000000; % NG
	2	 0.0	 0.0	 3	   0.000000	  25.558838	   0.000000; % COW
	2	 0.0	 0.0	 3	   0.000000	  25.751054	   0.000000; % COW
	2	 0.0	 0.0	 3	   0.000000	  51.585852	   0.000000; % COW
	2	 0.0	 0.0	 3	   0.000000	  32.342661	   0.000000; % NG
	2	 0.0	 0.0	 3	   0.000000	  37.599833	   0.000000; % NG
	2	 0.0	 0.0	 3	   0.000000	  12.266695	   0.000000; % COW
	2	 0.0	 0.0	 3	   0.000000	  20.790996	   0.000000; % COW
	2	 0.0	 0.0	 3	   0.000000	  39.128895	   0.000000; % NG
	2	 0.0	 0.0	 3	   0.000000	  37.924434	   0.000000; % NG
	2	 0.0	 0.0	 3	   0.000000	  54.817083	   0.000000; % NG
	2	 0.0	 0.0	 3	   0.000000	  60.178038	   0.000000; % NG
	2	 0.0	 0.0	 3	   0.000000	  62.363883	   0.000000; % NG
	2	 0.0	 0.0	 3	   0.000000	  27.014212	   0.000000; % NG
	2	 0.0	 0.0	 3	   0.000000	  46.542610	   0.000000; % NG
	2	 0.0	 0.0	 3	   0.000000	  44.165126	   0.000000; % COW
	2	 0.0	 0.0	 3	   0.000000	  39.054327	   0.000000; % NG
	2	 0.0	 0.0	 3	   0.000000	  46.833103	   0.000000; % NG
	2	 0.0	 0.0	 3	   0.000000	  31.812579	   0.000000; % COW
	2	 0.0	 0.0	 3	   0.000000	  56.658483	   0.000000; % NG
	2	 0.0	 0.0	 3	   0.000000	  59.994828	   0.000000; % NG
	2	 0.0	 0.0	 3	   0.000000	  49.922666	   0.000000; % COW
	2	 0.0	 0.0	 3	   0.000000	  36.124647	   0.000000; % NG
	2	 0.0	 0.0	 3	   0.000000	  36.015935	   0.000000; % NG
	2	 0.0	 0.0	 3	   0.000000	  48.633708	   0.000000; % COW
	2	 0.0	 0.0	 3	   0.000000	  35.659648	   0.000000; % NG
	2	 0.0	 0.0	 3	   0.000000	  46.703140	   0.000000; % NG
	2	 0.0	 0.0	 3	   0.000000	  48.409517	   0.000000; % NG
	2	 0.0	 0.0	 3	   0.000000	  30.631666	   0.000000; % NG
	2	 0.0	 0.0	 3	   0.000000	  20.064159	   0.000000; % COW
	2	 0.0	 0.0	 3	   0.000000	  29.501153	   0.000000; % NG
	2	 0.0	 0.0	 3	   0.000000	  39.340371	   0.000000; % NG
	2	 0.0	 0.0	 3	   0.000000	  42.354354	   0.000000; % PEL
	2	 0.0	 0.0	 3	   0.000000	  47.323538	   0.000000; % NG
	2	 0.0	 0.0	 3	   0.000000	  55.430620	   0.000000; % NG
	2	 0.0	 0.0	 3	   0.000000	  24.067239	   0.000000; % COW
	2	 0.0	 0.0	 3	   0.000000	  33.047253	   0.000000; % PEL
	2	 0.0	 0.0	 3	   0.000000	  34.613297	   0.000000; % NUC
	2	 0.0	 0.0	 3	   0.000000	  60.309346	   0.000000; % NG
	2	 0.0	 0.0	 3	   0.000000	  46.255307	   0.000000; % COW
	2	 0.0	 0.0	 3	   0.000000	   7.193005	   0.000000; % NUC
	2	 0.0	 0.0	 3	   0.000000	  51.023287	   0.000000; % NG
	2	 0.0	 0.0	 3	   0.000000	  38.461525	   0.000000; % COW
	2	 0.0	 0.0	 3	   0.000000	  15.115258	   0.000000; % COW
	2	 0.0	 0.0	 3	   0.000000	  49.255512	   0.000000; % NG
	2	 0.0	 0.0	 3	   0.000000	  36.332863	   0.000000; % NG
	2	 0.0	 0.0	 3	   0.000000	  52.079593	   0.000000; % COW
	2	 0.0	 0.0	 3	   0.000000	  40.842153	   0.000000; % NG
	2	 0.0	 0.0	 3	   0.000000	  28.470658	   0.000000; % NG
	2	 0.0	 0.0	 3	   0.000000	  52.019401	   0.000000; % NG
	2	 0.0	 0.0	 3	   0.000000	  39.914246	   0.000000; % COW
	2	 0.0	 0.0	 3	   0.000000	  32.524900	   0.000000; % NG
	2	 0.0	 0.0	 3	   0.000000	  32.251572	   0.000000; % NG
	2	 0.0	 0.0	 3	   0.000000	  51.724235	   0.000000; % NG
	2	 0.0	 0.0	 3	   0.000000	  56.057024	   0.000000; % NG
	2	 0.0	 0.0	 3	   0.000000	  29.542650	   0.000000; % NG
	2	 0.0	 0.0	 3	   0.000000	  18.649255	   0.000000; % NG
	2	 0.0	 0.0	 3	   0.000000	  22.197811	   0.000000; % NG
	2	 0.0	 0.0	 3	   0.000000	  65.380433	   0.000000; % NG
	2	 0.0	 0.0	 3	   0.000000	  38.001200	   0.000000; % NG
	2	 0.0	 0.0	 3	   0.000000	  28.466461	   0.000000; % COW
	2	 0.0	 0.0	 3	   0.000000	  64.202512	   0.000000; % NG
	2	 0.0	 0.0	 3	   0.000000	  55.343521	   0.000000; % NG
	2	 0.0	 0.0	 3	   0.000000	  51.322459	   0.000000; % NG
	2	 0.0	 0.0	 3	   0.000000	  45.248308	   0.000000; % NG
	2	 0.0	 0.0	 3	   0.000000	  50.631504	   0.000000; % COW
	2	 0.0	 0.0	 3	   0.000000	  29.088154	   0.000000; % COW
	2	 0.0	 0.0	 3	   0.000000	  36.567524	   0.000000; % COW
	2	 0.0	 0.0	 3	   0.000000	  54.908931	   0.000000; % COW
	2	 0.0	 0.0	 3	   0.000000	  11.681238	   0.000000; % NUC
	2	 0.0	 0.0	 3	   0.000000	  19.206319	   0.000000; % COW
	2	 0.0	 0.0	 3	   0.000000	  58.015156	   0.000000; % COW
	2	 0.0	 0.0	 3	   0.000000	  25.441709	   0.000000; % NG
	2	 0.0	 0.0	 3	   0.000000	  38.737557	   0.000000; % COW
	2	 0.0	 0.0	 3	   0.000000	  28.348266	   0.000000; % NG
	2	 0.0	 0.0	 3	   0.000000	  40.882355	   0.000000; % COW
	2	 0.0	 0.0	 3	   0.000000	  40.225585	   0.000000; % NG
	2	 0.0	 0.0	 3	   0.000000	  36.743382	   0.000000; % NG
	2	 0.0	 0.0	 3	   0.000000	  23.962838	   0.000000; % NG
	2	 0.0	 0.0	 3	   0.000000	  27.147616	   0.000000; % NG
	2	 0.0	 0.0	 3	   0.000000	  42.508398	   0.000000; % NG
	2	 0.0	 0.0	 3	   0.000000	  64.281667	   0.000000; % NG
	2	 0.0	 0.0	 3	   0.000000	  65.646146	   0.000000; % NG
	2	 0.0	 0.0	 3	   0.000000	  50.033486	   0.000000; % NG
	2	 0.0	 0.0	 3	   0.000000	  52.947238	   0.000000; % COW
	2	 0.0	 0.0	 3	   0.000000	  27.805956	   0.000000; % NG
	2	 0.0	 0.0	 3	   0.000000	  11.394005	   0.000000; % COW
	2	 0.0	 0.0	 3	   0.000000	  53.632413	   0.000000; % NG
	2	 0.0	 0.0	 3	   0.000000	  30.868388	   0.000000; % NG
	2	 0.0	 0.0	 3	   0.000000	  34.593837	   0.000000; % NG
	2	 0.0	 0.0	 3	   0.000000	  38.892976	   0.000000; % NG
	2	 0.0	 0.0	 3	   0.000000	  40.068495	   0.000000; % NG
	2	 0.0	 0.0	 3	   0.000000	  48.614174	   0.000000; % NG
	2	 0.0	 0.0	 3	   0.000000	  37.718902	   0.000000; % NG
	2	 0.0	 0.0	 3	   0.000000	   5.145970	   0.000000; % COW
	2	 0.0	 0.0	 3	   0.000000	  38.104707	   0.000000; % COW
	2	 0.0	 0.0	 3	   0.000000	  29.805069	   0.000000; % NG
	2	 0.0	 0.0	 3	   0.000000	  37.511351	   0.000000; % NG
	2	 0.0	 0.0	 3	   0.000000	  48.530365	   0.000000; % NG
	2	 0.0	 0.0	 3	   0.000000	  53.744572	   0.000000; % COW
	2	 0.0	 0.0	 3	   0.000000	  53.026660	   0.000000; % NG
	2	 0.0	 0.0	 3	   0.000000	  54.321702	   0.000000; % NG
	2	 0.0	 0.0	 3	   0.000000	  31.817114	   0.000000; % NG
	2	 0.0	 0.0	 3	   0.000000	  41.615810	   0.000000; % NG
	2	 0.0	 0.0	 3	   0.000000	  53.929917	   0.000000; % NG
	2	 0.0	 0.0	 3	   0.000000	  43.859099	   0.000000; % NG
	2	 0.0	 0.0	 3	   0.000000	  57.475961	   0.000000; % NG
	2	 0.0	 0.0	 3	   0.000000	  34.993612	   0.000000; % NG
	2	 0.0	 0.0	 3	   0.000000	  42.295790	   0.000000; % NG
	2	 0.0	 0.0	 3	   0.000000	  38.742613	   0.000000; % NG
	2	 0.0	 0.0	 3	   0.000000	  34.605904	   0.000000; % NG
	2	 0.0	 0.0	 3	   0.000000	  21.622912	   0.000000; % NG
	2	 0.0	 0.0	 3	   0.000000	  45.776335	   0.000000; % NG
	2	 0.0	 0.0	 3	   0.000000	  38.583862	   0.000000; % NG
	2	 0.0	 0.0	 3	   0.000000	  45.099965	   0.000000; % COW
	2	 0.0	 0.0	 3	   0.000000	  41.258108	   0.000000; % NG
	2	 0.0	 0.0	 3	   0.000000	  21.062616	   0.000000; % NG
	2	 0.0	 0.0	 3	   0.000000	  26.481068	   0.000000; % NG
	2	 0.0	 0.0	 3	   0.000000	  18.348701	   0.000000; % NG
	2	 0.0	 0.0	 3	   0.000000	  25.413791	   0.000000; % COW
	2	 0.0	 0.0	 3	   0.000000	  36.916275	   0.000000; % NG
	2	 0.0	 0.0	 3	   0.000000	  23.502038	   0.000000; % NG
	2	 0.0	 0.0	 3	   0.000000	  37.360456	   0.000000; % COW
	2	 0.0	 0.0	 3	   0.000000	  39.677010	   0.000000; % NG
	2	 0.0	 0.0	 3	   0.000000	  44.735290	   0.000000; % NG
	2	 0.0	 0.0	 3	   0.000000	  48.190758	   0.000000; % COW
	2	 0.0	 0.0	 3	   0.000000	  52.190463	   0.000000; % NG
	2	 0.0	 0.0	 3	   0.000000	  33.465744	   0.000000; % NG
	2	 0.0	 0.0	 3	   0.000000	  53.139678	   0.000000; % NG
	2	 0.0	 0.0	 3	   0.000000	  32.767116	   0.000000; % NG
	2	 0.0	 0.0	 3	   0.000000	  45.465820	   0.000000; % NG
	2	 0.0	 0.0	 3	   0.000000	  61.885229	   0.000000; % NG
	2	 0.0	 0.0	 3	   0.000000	  47.874327	   0.000000; % COW
	2	 0.0	 0.0	 3	   0.000000	  31.776344	   0.000000; % COW
	2	 0.0	 0.0	 3	   0.000000	  49.952315	   0.000000; % COW
	2	 0.0	 0.0	 3	   0.000000	  48.449968	   0.000000; % COW
	2	 0.0	 0.0	 3	   0.000000	   8.075265	   0.000000; % COW
	2	 0.0	 0.0	 3	   0.000000	  28.805344	   0.000000; % COW
	2	 0.0	 0.0	 3	   0.000000	   8.000659	   0.000000; % COW
	2	 0.0	 0.0	 3	   0.000000	  32.086716	   0.000000; % COW
	2	 0.0	 0.0	 3	   0.000000	  48.493508	   0.000000; % NG
	2	 0.0	 0.0	 3	   0.000000	  31.489933	   0.000000; % COW
	2	 0.0	 0.0	 3	   0.000000	  25.892150	   0.000000; % COW
	2	 0.0	 0.0	 3	   0.000000	  65.026626	   0.000000; % NG
	2	 0.0	 0.0	 3	   0.000000	  44.996658	   0.000000; % NG
	2	 0.0	 0.0	 3	   0.000000	  44.669941	   0.000000; % NG
	2	 0.0	 0.0	 3	   0.000000	  45.660886	   0.000000; % NG
	2	 0.0	 0.0	 3	   0.000000	  45.136107	   0.000000; % NG
	2	 0.0	 0.0	 3	   0.000000	  45.717086	   0.000000; % NG
	2	 0.0	 0.0	 3	   0.000000	  32.761693	   0.000000; % NG
	2	 0.0	 0.0	 3	   0.000000	  62.283634	   0.000000; % NG
	2	 0.0	 0.0	 3	   0.000000	  26.959694	   0.000000; % NG
	2	 0.0	 0.0	 3	   0.000000	  41.992112	   0.000000; % COW
	2	 0.0	 0.0	 3	   0.000000	  43.608166	   0.000000; % NG
	2	 0.0	 0.0	 3	   0.000000	  21.053626	   0.000000; % NG
	2	 0.0	 0.0	 3	   0.000000	  45.115144	   0.000000; % NG
	2	 0.0	 0.0	 3	   0.000000	  14.963321	   0.000000; % NG
	2	 0.0	 0.0	 3	   0.000000	  60.582607	   0.000000; % NG
	2	 0.0	 0.0	 3	   0.000000	  69.902619	   0.000000; % NG
	2	 0.0	 0.0	 3	   0.000000	  55.675675	   0.000000; % NG
	2	 0.0	 0.0	 3	   0.000000	  27.930461	   0.000000; % NG
	2	 0.0	 0.0	 3	   0.000000	  23.687206	   0.000000; % NG
	2	 0.0	 0.0	 3	   0.000000	  48.656554	   0.000000; % NG
	2	 0.0	 0.0	 3	   0.000000	  29.334713	   0.000000; % NG
	2	 0.0	 0.0	 3	   0.000000	  46.772459	   0.000000; % COW
	2	 0.0	 0.0	 3	   0.000000	  22.977231	   0.000000; % COW
	2	 0.0	 0.0	 3	   0.000000	  18.509505	   0.000000; % COW
	2	 0.0	 0.0	 3	   0.000000	  18.775879	   0.000000; % NG
	2	 0.0	 0.0	 3	   0.000000	  43.885024	   0.000000; % NG
	2	 0.0	 0.0	 3	   0.000000	  27.714320	   0.000000; % NG
	2	 0.0	 0.0	 3	   0.000000	  23.585823	   0.000000; % NG
	2	 0.0	 0.0	 3	   0.000000	  21.128875	   0.000000; % NG
	2	 0.0	 0.0	 3	   0.000000	  37.813529	   0.000000; % NG
	2	 0.0	 0.0	 3	   0.000000	  42.982560	   0.000000; % NG
	2	 0.0	 0.0	 3	   0.000000	   7.572580	   0.000000; % COW
	2	 0.0	 0.0	 3	   0.000000	  37.134984	   0.000000; % NG
	2	 0.0	 0.0	 3	   0.000000	  43.903986	   0.000000; % NG
	2	 0.0	 0.0	 3	   0.000000	  27.616931	   0.000000; % NG
	2	 0.0	 0.0	 3	   0.000000	  44.314906	   0.000000; % NG
	2	 0.0	 0.0	 3	   0.000000	  44.590212	   0.000000; % NG
	2	 0.0	 0.0	 3	   0.000000	  15.855969	   0.000000; % COW
	2	 0.0	 0.0	 3	   0.000000	  49.069970	   0.000000; % NG
	2	 0.0	 0.0	 3	   0.000000	  26.365216	   0.000000; % COW
	2	 0.0	 0.0	 3	   0.000000	  49.597034	   0.000000; % NG
	2	 0.0	 0.0	 3	   0.000000	  30.957724	   0.000000; % COW
	2	 0.0	 0.0	 3	   0.000000	  39.679476	   0.000000; % NG
	2	 0.0	 0.0	 3	   0.000000	  53.055506	   0.000000; % NG
	2	 0.0	 0.0	 3	   0.000000	  61.522271	   0.000000; % NG
	2	 0.0	 0.0	 3	   0.000000	  28.728858	   0.000000; % NG
	2	 0.0	 0.0	 3	   0.000000	  43.563894	   0.000000; % NG
	2	 0.0	 0.0	 3	   0.000000	  47.767080	   0.000000; % NG
	2	 0.0	 0.0	 3	   0.000000	  39.205142	   0.000000; % NG
	2	 0.0	 0.0	 3	   0.000000	  53.972892	   0.000000; % COW
	2	 0.0	 0.0	 3	   0.000000	  40.709601	   0.000000; % COW
	2	 0.0	 0.0	 3	   0.000000	  52.103668	   0.000000; % NG
	2	 0.0	 0.0	 3	   0.000000	  59.039131	   0.000000; % NG
...
];

%% branch data
%	fbus	tbus	r	x	b	rateA	rateB	rateC	ratio	angle	status	angmin	angmax
mpc.branch = [
	7519	 4482	 0.0006	 0.00616	 0.0	 5104.0	 5104.0	 5104.0	 0.0	 0.0	 1	 -30.0	 30.0;
	7519	 11823	 0.0005	 0.0074	 0.0	 4259.0	 4259.0	 4259.0	 0.0	 0.0	 1	 -30.0	 30.0;
	3073	 4516	 0.00107	 0.00626	 0.0	 4974.0	 4974.0	 4974.0	 0.0	 0.0	 1	 -30.0	 30.0;
	3073	 4706	 0.000841	 0.0055	 0.0	 5678.0	 5678.0	 5678.0	 0.0	 0.0	 1	 -30.0	 30.0;
	5157	 1032	 0.00143	 0.01563	 0.0	 2013.0	 2013.0	 2013.0	 0.0	 0.0	 1	 -30.0	 30.0;
	5157	 6653	 0.00146	 0.01692	 0.0	 1860.0	 1860.0	 1860.0	 0.0	 0.0	 1	 -30.0	 30.0;
	628	 7896	 7e-05	 0.00057	 0.0	 55004.0	 55004.0	 55004.0	 0.0	 0.0	 1	 -30.0	 30.0;
	628	 6592	 6e-05	 0.00056	 0.0	 56085.0	 56085.0	 56085.0	 0.0	 0.0	 1	 -30.0	 30.0;
	11792	 10888	 0.003349	 0.01656	 0.0	 1870.0	 1870.0	 1870.0	 0.0	 0.0	 1	 -30.0	 30.0;
	11792	 4609	 0.003409	 0.016211	 0.0	 1907.0	 1907.0	 1907.0	 0.0	 0.0	 1	 -30.0	 30.0;
	6573	 10888	 0.003479	 0.01586	 0.0	 1946.0	 1946.0	 1946.0	 0.0	 0.0	 1	 -30.0	 30.0;
	6573	 4609	 0.003099	 0.017969	 0.0	 1733.0	 1733.0	 1733.0	 0.0	 0.0	 1	 -30.0	 30.0;
	782	 13300	 0.00127	 0.01842	 0.0	 1711.0	 1711.0	 1711.0	 0.0	 0.0	 1	 -30.0	 30.0;
	782	 1186	 0.00126	 0.01847	 0.0	 1707.0	 1707.0	 1707.0	 0.0	 0.0	 1	 -30.0	 30.0;
	11715	 924	 0.0013	 0.01808	 0.0	 1743.0	 1743.0	 1743.0	 0.0	 0.0	 1	 -30.0	 30.0;
	11715	 12182	 0.00131	 0.01765	 0.0	 1785.0	 1785.0	 1785.0	 0.0	 0.0	 1	 -30.0	 30.0;
	10257	 2582	 0.00065	 0.01311	 0.0	 2891.0	 2891.0	 2891.0	 0.0	 0.0	 1	 -30.0	 30.0;
	10257	 9363	 0.00067	 0.00974	 0.0	 3851.0	 3851.0	 3851.0	 0.0	 0.0	 1	 -30.0	 30.0;
	7595	 11501	 0.00236	 0.01418	 0.0	 2198.0	 2198.0	 2198.0	 0.0	 0.0	 1	 -30.0	 30.0;
	7595	 11390	 0.002169	 0.015909	 0.0	 1968.0	 1968.0	 1968.0	 0.0	 0.0	 1	 -30.0	 30.0;
	6873	 1806	 0.00027	 0.00254	 0.0	 12367.0	 12367.0	 12367.0	 0.0	 0.0	 1	 -30.0	 30.0;
	6873	 11151	 0.00027	 0.00259	 0.0	 12131.0	 12131.0	 12131.0	 0.0	 0.0	 1	 -30.0	 30.0;
	11949	 1806	 0.00033	 0.00302	 0.0	 10398.0	 10398.0	 10398.0	 0.0	 0.0	 1	 -30.0	 30.0;
	11949	 1269	 0.00029	 0.00312	 0.0	 10081.0	 10081.0	 10081.0	 0.0	 0.0	 1	 -30.0	 30.0;
	2623	 3359	 0.000289	 0.00137	 0.0	 22560.0	 22560.0	 22560.0	 0.0	 0.0	 1	 -30.0	 30.0;
	2623	 11159	 0.000219	 0.00263	 0.0	 11969.0	 11969.0	 11969.0	 0.0	 0.0	 1	 -30.0	 30.0;
	3020	 3359	 0.000289	 0.001341	 0.0	 23027.0	 23027.0	 23027.0	 0.0	 0.0	 1	 -30.0	 30.0;
	3020	 12995	 0.000229	 0.00257	 0.0	 12243.0	 12243.0	 12243.0	 0.0	 0.0	 1	 -30.0	 30.0;
	9670	 3359	 0.000841	 0.00689	 0.0	 4551.0	 4551.0	 4551.0	 0.0	 0.0	 1	 -30.0	 30.0;
	9670	 2360	 0.000979	 0.00586	 0.0	 5317.0	 5317.0	 5317.0	 0.0	 0.0	 1	 -30.0	 30.0;
	8390	 3359	 0.00014	 0.0012	 0.0	 26146.0	 26146.0	 26146.0	 0.0	 0.0	 1	 -30.0	 30.0;
	8390	 11515	 0.000211	 0.001539	 0.0	 20335.0	 20335.0	 20335.0	 0.0	 0.0	 1	 -30.0	 30.0;
	12630	 3359	 0.000401	 0.004901	 0.0	 6424.0	 6424.0	 6424.0	 0.0	 0.0	 1	 -30.0	 30.0;
	12630	 11515	 0.000219	 0.00151	 0.0	 20703.0	 20703.0	 20703.0	 0.0	 0.0	 1	 -30.0	 30.0;
	3340	 3359	 0.000729	 0.004539	 0.0	 6872.0	 6872.0	 6872.0	 0.0	 0.0	 1	 -30.0	 30.0;
	3340	 3953	 0.00062	 0.00482	 0.0	 6500.0	 6500.0	 6500.0	 0.0	 0.0	 1	 -30.0	 30.0;
	7444	 8848	 0.00052	 0.00407	 0.0	 7699.0	 7699.0	 7699.0	 0.0	 0.0	 1	 -30.0	 30.0;
	7444	 5026	 0.00034	 0.00502	 0.0	 6278.0	 6278.0	 6278.0	 0.0	 0.0	 1	 -30.0	 30.0;
...